data_NV2110
 
_publ_contact_author_name         'Prof. Dr. Anthony Linden'
_publ_contact_author_address
; Department of Chemistry
  University of Zurich
  Winterthurerstrasse 190
  CH-8057 Zurich
  Switzerland
;
_publ_contact_author_email        anthony.linden@chem.uzh.ch

# start Validation Reply Form
_vrf_PLAT420_NV2110
;
PROBLEM: D-H Bond Without Acceptor  O1       --H1       .     Please Check 
RESPONSE: There is a possible weak O-H...O interaction between the 
hydroxy groups of adjacent molecules, but the distances are just outside 
the cutoff criterion of this test.
;
# end Validation Reply Form

_audit_creation_method            'SHELXL-2018/3'
_shelx_SHELXL_version_number      '2018/3'
_chemical_name_systematic         ?
_chemical_name_common             ?
_chemical_melting_point           ?
_chemical_formula_moiety      'C23 H28 Au N O P 1+, B F4 1-, C H2 Cl2' 
_chemical_formula_sum             'C24 H30 Au B Cl2 F4 N O P' 
_chemical_formula_weight          734.13

loop_
 _atom_type_symbol
 _atom_type_description
 _atom_type_scat_dispersion_real
 _atom_type_scat_dispersion_imag
 _atom_type_scat_source
 'C'  'C'   0.0181   0.0091
 'International Tables Vol C Tables 4.2.6.8 and 6.1.1.4'
 'H'  'H'   0.0000   0.0000
 'International Tables Vol C Tables 4.2.6.8 and 6.1.1.4'
 'Au'  'Au'  -4.4197   7.2980
 'International Tables Vol C Tables 4.2.6.8 and 6.1.1.4'
 'B'  'B'   0.0090   0.0039
 'International Tables Vol C Tables 4.2.6.8 and 6.1.1.4'
 'Cl'  'Cl'   0.3639   0.7018
 'International Tables Vol C Tables 4.2.6.8 and 6.1.1.4'
 'F'  'F'   0.0727   0.0534
 'International Tables Vol C Tables 4.2.6.8 and 6.1.1.4'
 'N'  'N'   0.0311   0.0180
 'International Tables Vol C Tables 4.2.6.8 and 6.1.1.4'
 'O'  'O'   0.0492   0.0322
 'International Tables Vol C Tables 4.2.6.8 and 6.1.1.4'
 'P'  'P'   0.2955   0.4335
 'International Tables Vol C Tables 4.2.6.8 and 6.1.1.4'
 
_space_group_crystal_system       monoclinic
_space_group_IT_number            14
_space_group_name_H-M_alt         'P 21/n'
_space_group_name_Hall            '-P 2yn'
 
_shelx_space_group_comment
;
The symmetry employed for this shelxl refinement is uniquely defined
by the following loop, which should always be used as a source of
symmetry information in preference to the above space-group names.
They are only intended as comments.
;
 
loop_
 _space_group_symop_operation_xyz
 'x, y, z'
 '-x+1/2, y+1/2, -z+1/2'
 '-x, -y, -z'
 'x-1/2, -y-1/2, z-1/2'
 
_cell_length_a                    12.84219(11)
_cell_length_b                    13.43843(10)
_cell_length_c                    15.21397(13)
_cell_angle_alpha                 90
_cell_angle_beta                  92.0950(7)
_cell_angle_gamma                 90
_cell_volume                      2623.85(4)
_cell_formula_units_Z             4
_cell_measurement_temperature     160(2)
_cell_measurement_reflns_used   20914
_cell_measurement_theta_min     4.3810
_cell_measurement_theta_max     76.2620

_exptl_crystal_description        plate
_exptl_crystal_colour             'pale-yellow'
_exptl_crystal_size_max           0.31
_exptl_crystal_size_mid           0.30
_exptl_crystal_size_min           0.04
loop_
_exptl_crystal_face_index_h
_exptl_crystal_face_index_k
_exptl_crystal_face_index_l
_exptl_crystal_face_perp_dist
  -1    0    1 0.0243
   1    0   -1 0.0190
   1   -2   -1 0.1212
  -1    2    1 0.1416
  -5   -1   -5 0.1318
   1    0    1 0.1364
  -4    5   -1 0.1715
   0   -9   -1 0.1334
   0    9    0 0.1624
loop_
_exptl_oxdiff_crystal_face_indexfrac_h
_exptl_oxdiff_crystal_face_indexfrac_k
_exptl_oxdiff_crystal_face_indexfrac_l
_exptl_oxdiff_crystal_face_x
_exptl_oxdiff_crystal_face_y
_exptl_oxdiff_crystal_face_z
-0.9997 -0.0011  0.9970  0.1528 -0.0126  0.0161
 0.9997  0.0011 -0.9970 -0.1528  0.0126 -0.0161
 0.9999 -1.9988 -1.0002 -0.1766 -0.2090  0.0378
-0.9999  1.9988  1.0002  0.1766  0.2090 -0.0378
-5.0002 -1.0029 -5.0054  0.0582  0.0690  0.8025
 1.0001  0.0006  1.0008 -0.0140 -0.0360 -0.1551
-4.0003  4.9966 -0.9985  0.3239  0.6250  0.2771
 0.0008 -8.9993 -1.0132 -0.1767 -0.9729  0.3122
-0.0010  8.9996  0.0143  0.1073  0.9972 -0.2427
_exptl_crystal_density_meas       ?
_exptl_crystal_density_method     ?
_exptl_crystal_density_diffrn     1.858          
_exptl_crystal_F_000              1432
_exptl_transmission_factor_min    ?
_exptl_transmission_factor_max    ?
_exptl_absorpt_coefficient_mu     13.407
_shelx_estimated_absorpt_T_min    ?
_shelx_estimated_absorpt_T_max    ?
_exptl_absorpt_correction_T_min                     0.032
_exptl_absorpt_correction_T_max                     1.000
_exptl_absorpt_correction_type            gaussian
_exptl_absorpt_process_details
;
Numerical absorption correction based on gaussian integration over
a multifaceted crystal model 
plus an empirical absorption correction using spherical harmonics, 
implemented in the SCALE3 ABSPACK scaling algorithm.
CrysAlisPro, Version 1.171.41.105a (Rigaku Oxford Diffraction, 2021)
;
_oxdiff_exptl_absorpt_empirical_full_min           0.866
_oxdiff_exptl_absorpt_empirical_full_max           1.219
_oxdiff_exptl_absorpt_empirical_details
;
Empirical correction (ABSPACK) includes:
- Absorption correction using spherical harmonics
- Frame scaling
;

_exptl_special_details
;
Data collection and full structure determination
done by Prof. Anthony Linden: anthony.linden@chem.uzh.ch

Solvent used: dichloromethane / n-hexane
Cooling Device: Oxford Instruments Cryojet XL
Crystal mount: on a cryo-loop
Frames collected: 1762
Seconds exposure per frame: 1.0-4.0
Degrees rotation per frame: 1.0
Crystal-detector distance (mm): 52.0
Client: Jaime Martin
Sample code: MAR-015  (NV2110)
;

_diffrn_ambient_temperature       160(2)
_diffrn_ambient_environment       N~2~
_diffrn_radiation_wavelength      1.54184
_diffrn_radiation_type            'Cu K\a'
_diffrn_source                    'micro-focus sealed X-ray tube'
_diffrn_source_type               'SuperNova (Cu) X-ray source'
_diffrn_radiation_probe           x-ray
_diffrn_radiation_monochromator   mirror
_diffrn_measurement_device        'four-circle \k-geometry diffractometer'
_diffrn_measurement_device_type 
'Oxford Diffraction SuperNova, dual radiation diffractometer'
_diffrn_detector                  'CCD area detector'
_diffrn_detector_type             'Atlas CCD area detector on \k goniostat'
_diffrn_detector_area_resol_mean  10.3801
_diffrn_measurement_method '\w scans'
_diffrn_reflns_number             27087
_diffrn_reflns_av_unetI/netI      0.0136
_diffrn_reflns_av_R_equivalents   0.0242
_diffrn_reflns_limit_h_min        -16
_diffrn_reflns_limit_h_max        14
_diffrn_reflns_limit_k_min        -16
_diffrn_reflns_limit_k_max        16
_diffrn_reflns_limit_l_min        -19
_diffrn_reflns_limit_l_max        17
_diffrn_reflns_theta_min          4.391
_diffrn_reflns_theta_max          76.327
_diffrn_reflns_theta_full         67.684
_diffrn_measured_fraction_theta_max   0.995
_diffrn_measured_fraction_theta_full  1.000
_diffrn_reflns_Laue_measured_fraction_max    0.995
_diffrn_reflns_Laue_measured_fraction_full   1.000
_diffrn_reflns_point_group_measured_fraction_max   0.995
_diffrn_reflns_point_group_measured_fraction_full  1.000
_reflns_number_total              5470
_reflns_number_gt                 5278
_reflns_threshold_expression      'I > 2\s(I)'
_reflns_Friedel_coverage          0.000
_reflns_Friedel_fraction_max      .
_reflns_Friedel_fraction_full     .
 
_reflns_special_details
;
 Reflections were merged by SHELXL according to the crystal
 class for the calculation of statistics and refinement.
 
 _reflns_Friedel_fraction is defined as the number of unique
 Friedel pairs measured divided by the number that would be
 possible theoretically, ignoring centric projections and
 systematic absences.
;
 
_computing_data_collection
'CrysAlisPro, Version 1.171.41.105a (Rigaku Oxford Diffraction, 2021)'
_computing_cell_refinement
'CrysAlisPro, Version 1.171.41.105a (Rigaku Oxford Diffraction, 2021)'
_computing_data_reduction
'CrysAlisPro, Version 1.171.41.105a (Rigaku Oxford Diffraction, 2021)'
_computing_structure_solution     'SHELXT-2018 (Sheldrick, 2015a)'
_computing_structure_refinement   'SHELXL-2018 (Sheldrick, 2015b)'
_computing_molecular_graphics     'ORTEPII (Johnson, 1976)'
_computing_publication_material   'SHELXL-2018 and PLATON (Spek, 2015)'

_refine_special_details
;
?
;

_refine_ls_structure_factor_coef  Fsqd
_refine_ls_matrix_type            full
_refine_ls_weighting_scheme       calc
_refine_ls_weighting_details
'w=1/[\s^2^(Fo^2^)+(0.0241P)^2^+4.8373P] where P=(Fo^2^+2Fc^2^)/3'
_atom_sites_solution_primary      dual
_atom_sites_solution_secondary    difmap
_atom_sites_solution_hydrogens    'geom & difmap'
_refine_ls_hydrogen_treatment     mixed
_refine_ls_extinction_method      'SHELXL-2018 (Sheldrick, 2015b)'
_refine_ls_extinction_coef        0.000306(17)
_refine_ls_extinction_expression
 'Fc^*^=kFc[1+0.001xFc^2^\l^3^/sin(2\q)]^-1/4^'
_refine_ls_number_reflns          5470
_refine_ls_number_parameters      327
_refine_ls_number_restraints      2
_refine_ls_R_factor_all           0.0218
_refine_ls_R_factor_gt            0.0210
_refine_ls_wR_factor_ref          0.0530
_refine_ls_wR_factor_gt           0.0524
_refine_ls_goodness_of_fit_ref    1.044
_refine_ls_restrained_S_all       1.044
_refine_ls_shift/su_max           0.002
_refine_ls_shift/su_mean          0.000
_refine_diff_density_max    1.186
_refine_diff_density_min   -0.894
_refine_diff_density_rms    0.089
 
loop_
 _atom_site_label
 _atom_site_type_symbol
 _atom_site_fract_x
 _atom_site_fract_y
 _atom_site_fract_z
 _atom_site_U_iso_or_equiv
 _atom_site_adp_type
 _atom_site_occupancy
 _atom_site_site_symmetry_order  
 _atom_site_calc_flag
 _atom_site_refinement_flags_posn
 _atom_site_refinement_flags_adp
 _atom_site_refinement_flags_occupancy
 _atom_site_disorder_assembly
 _atom_site_disorder_group
Au1 Au 0.22703(2) 0.50737(2) 0.41466(2) 0.02243(5) Uani 1 1 d D . . . .
P1 P 0.15322(5) 0.63164(5) 0.32075(4) 0.02097(13) Uani 1 1 d . . . . .
O1 O 0.10738(19) 0.4678(3) 0.4843(2) 0.0612(9) Uani 1 1 d D . . . .
H1 H 0.094(3) 0.511(2) 0.521(3) 0.09(2) Uiso 1 1 d D . . . .
N1 N 0.35743(16) 0.53120(16) 0.34879(14) 0.0205(4) Uani 1 1 d . . . . .
C1 C 0.2695(2) 0.65277(19) 0.25611(16) 0.0241(5) Uani 1 1 d . . . . .
C2 C 0.2751(2) 0.7200(2) 0.18747(18) 0.0295(6) Uani 1 1 d . . . . .
H2 H 0.214384 0.755699 0.168850 0.035 Uiso 1 1 calc R U . . .
C3 C 0.3691(2) 0.7364(2) 0.14465(19) 0.0314(6) Uani 1 1 d . . . . .
H3 H 0.371225 0.782553 0.097420 0.038 Uiso 1 1 calc R U . . .
C4 C 0.4573(2) 0.6858(2) 0.17128(18) 0.0312(6) Uani 1 1 d . . . . .
H4 H 0.520914 0.698451 0.143282 0.037 Uiso 1 1 calc R U . . .
C5 C 0.4550(2) 0.6152(2) 0.23966(17) 0.0258(5) Uani 1 1 d . . . . .
C6 C 0.3595(2) 0.59925(19) 0.28135(16) 0.0219(5) Uani 1 1 d . . . . .
C7 C 0.5434(2) 0.5602(2) 0.26884(18) 0.0292(6) Uani 1 1 d . . . . .
H7 H 0.608273 0.570892 0.242198 0.035 Uiso 1 1 calc R U . . .
C8 C 0.5368(2) 0.4917(2) 0.3352(2) 0.0273(6) Uani 1 1 d . . . . .
H8 H 0.596331 0.454198 0.353788 0.033 Uiso 1 1 calc R U . . .
C9 C 0.4414(2) 0.47741(19) 0.37541(17) 0.0218(5) Uani 1 1 d . . . . .
C10 C 0.4224(2) 0.40705(19) 0.44659(17) 0.0233(5) Uani 1 1 d . . . . .
C11 C 0.3212(2) 0.40604(19) 0.47889(17) 0.0252(5) Uani 1 1 d . . . . .
C12 C 0.2961(2) 0.3422(2) 0.54563(19) 0.0308(6) Uani 1 1 d . . . . .
H12 H 0.227951 0.342211 0.567832 0.037 Uiso 1 1 calc R U . . .
C13 C 0.3720(3) 0.2777(2) 0.5803(2) 0.0342(6) Uani 1 1 d . . . . .
H13 H 0.355221 0.233350 0.626271 0.041 Uiso 1 1 calc R U . . .
C14 C 0.4716(2) 0.2774(2) 0.5484(2) 0.0324(6) Uani 1 1 d . . . . .
H14 H 0.522271 0.232437 0.572234 0.039 Uiso 1 1 calc R U . . .
C15 C 0.4979(2) 0.3422(2) 0.48191(19) 0.0281(6) Uani 1 1 d . . . . .
H15 H 0.566559 0.342464 0.460606 0.034 Uiso 1 1 calc R U . . .
C16 C 0.1282(2) 0.7507(2) 0.37983(18) 0.0271(5) Uani 1 1 d . . . . .
C17 C 0.2339(2) 0.7816(3) 0.4220(2) 0.0373(7) Uani 1 1 d . . . . .
H171 H 0.262094 0.726744 0.458006 0.056 Uiso 1 1 calc R U . . .
H172 H 0.224567 0.840281 0.459116 0.056 Uiso 1 1 calc R U . . .
H173 H 0.282362 0.797430 0.375722 0.056 Uiso 1 1 calc R U . . .
C18 C 0.0532(3) 0.7306(3) 0.4536(2) 0.0452(8) Uani 1 1 d . . . . .
H181 H -0.015429 0.712645 0.427993 0.068 Uiso 1 1 calc R U . . .
H182 H 0.046850 0.790447 0.489764 0.068 Uiso 1 1 calc R U . . .
H183 H 0.079968 0.675639 0.490271 0.068 Uiso 1 1 calc R U . . .
C19 C 0.0868(3) 0.8339(2) 0.3206(2) 0.0416(7) Uani 1 1 d . . . . .
H191 H 0.133511 0.843172 0.271723 0.062 Uiso 1 1 calc R U . . .
H192 H 0.083206 0.895688 0.354505 0.062 Uiso 1 1 calc R U . . .
H193 H 0.017054 0.816347 0.297333 0.062 Uiso 1 1 calc R U . . .
C20 C 0.0470(2) 0.5840(2) 0.24566(19) 0.0299(6) Uani 1 1 d . . . . .
C21 C 0.0244(3) 0.6499(2) 0.1653(2) 0.0372(7) Uani 1 1 d . . . . .
H211 H 0.005670 0.716917 0.184746 0.056 Uiso 1 1 calc R U . . .
H212 H -0.033566 0.621614 0.129845 0.056 Uiso 1 1 calc R U . . .
H213 H 0.086492 0.653538 0.129948 0.056 Uiso 1 1 calc R U . . .
C22 C 0.0849(3) 0.4811(2) 0.2154(3) 0.0464(9) Uani 1 1 d . . . . .
H221 H 0.153234 0.488010 0.189346 0.070 Uiso 1 1 calc R U . . .
H222 H 0.034996 0.453748 0.171518 0.070 Uiso 1 1 calc R U . . .
H223 H 0.090703 0.436144 0.266052 0.070 Uiso 1 1 calc R U . . .
C23 C -0.0528(3) 0.5736(3) 0.2973(2) 0.0488(9) Uani 1 1 d . . . . .
H231 H -0.037159 0.537971 0.352417 0.073 Uiso 1 1 calc R U . . .
H232 H -0.104978 0.536287 0.262066 0.073 Uiso 1 1 calc R U . . .
H233 H -0.080140 0.639823 0.310392 0.073 Uiso 1 1 calc R U . . .
F1 F 0.7414(2) 0.3576(2) 0.38548(16) 0.0813(9) Uani 1 1 d . . . . .
F2 F 0.6818(2) 0.3155(2) 0.24886(17) 0.0700(7) Uani 1 1 d . . . . .
F3 F 0.85132(19) 0.33974(19) 0.27486(18) 0.0662(6) Uani 1 1 d . . . . .
F4 F 0.7780(2) 0.20533(19) 0.3313(2) 0.0743(8) Uani 1 1 d . . . . .
B1 B 0.7627(3) 0.3043(3) 0.3109(3) 0.0409(8) Uani 1 1 d . . . . .
Cl1 Cl 0.65228(9) -0.02437(8) 0.47915(7) 0.0580(2) Uani 1 1 d . . . . .
Cl2 Cl 0.87741(10) -0.02809(11) 0.45979(9) 0.0779(4) Uani 1 1 d . . . . .
C24 C 0.7542(3) -0.0155(3) 0.4064(3) 0.0478(8) Uani 1 1 d . . . . .
H241 H 0.750403 0.049738 0.376297 0.057 Uiso 1 1 calc R U . . .
H242 H 0.745790 -0.068024 0.361044 0.057 Uiso 1 1 calc R U . . .
 
loop_
 _atom_site_aniso_label
 _atom_site_aniso_U_11
 _atom_site_aniso_U_22
 _atom_site_aniso_U_33
 _atom_site_aniso_U_23
 _atom_site_aniso_U_13
 _atom_site_aniso_U_12
Au1 0.01989(7) 0.02406(7) 0.02343(7) 0.00665(4) 0.00203(4) 0.00171(4)
P1 0.0205(3) 0.0212(3) 0.0213(3) 0.0040(2) 0.0017(2) 0.0024(2)
O1 0.0259(12) 0.101(2) 0.0578(17) 0.0477(18) 0.0143(11) 0.0027(14)
N1 0.0196(10) 0.0200(10) 0.0220(10) -0.0013(8) 0.0009(8) 0.0007(8)
C1 0.0354(14) 0.0188(11) 0.0183(11) 0.0011(9) 0.0034(10) 0.0025(10)
C2 0.0298(14) 0.0301(14) 0.0288(13) 0.0051(11) 0.0050(11) 0.0033(11)
C3 0.0362(15) 0.0307(14) 0.0280(13) 0.0085(11) 0.0087(11) -0.0003(12)
C4 0.0298(14) 0.0366(15) 0.0278(13) 0.0034(11) 0.0087(11) -0.0030(12)
C5 0.0256(13) 0.0283(13) 0.0237(12) -0.0019(10) 0.0040(10) -0.0002(10)
C6 0.0252(12) 0.0213(12) 0.0194(11) -0.0031(9) 0.0035(9) -0.0021(10)
C7 0.0235(13) 0.0358(15) 0.0287(13) -0.0033(11) 0.0067(10) -0.0003(11)
C8 0.0231(13) 0.0303(14) 0.0284(14) -0.0044(10) -0.0006(11) 0.0052(10)
C9 0.0236(12) 0.0193(11) 0.0223(12) -0.0054(10) -0.0023(10) 0.0030(10)
C10 0.0274(13) 0.0191(12) 0.0230(12) -0.0038(9) -0.0029(10) 0.0005(10)
C11 0.0260(13) 0.0212(12) 0.0279(13) 0.0017(10) -0.0054(10) 0.0006(10)
C12 0.0312(14) 0.0281(14) 0.0328(14) 0.0066(11) -0.0019(11) -0.0024(11)
C13 0.0449(17) 0.0249(14) 0.0322(14) 0.0060(11) -0.0065(12) -0.0013(12)
C14 0.0403(16) 0.0215(13) 0.0345(15) -0.0003(11) -0.0108(12) 0.0058(12)
C15 0.0302(14) 0.0230(13) 0.0305(13) -0.0044(11) -0.0056(11) 0.0049(10)
C16 0.0283(13) 0.0264(13) 0.0267(13) -0.0023(10) 0.0030(10) 0.0053(11)
C17 0.0381(17) 0.0368(17) 0.0363(16) -0.0076(13) -0.0061(13) 0.0008(13)
C18 0.0486(19) 0.0461(19) 0.0423(18) -0.0080(15) 0.0215(15) 0.0024(16)
C19 0.054(2) 0.0306(15) 0.0400(17) -0.0009(13) -0.0051(14) 0.0161(14)
C20 0.0302(14) 0.0296(14) 0.0294(14) 0.0025(11) -0.0042(11) -0.0021(11)
C21 0.0425(17) 0.0381(16) 0.0303(15) 0.0028(13) -0.0088(12) 0.0031(14)
C22 0.062(2) 0.0291(16) 0.047(2) -0.0033(14) -0.0148(17) 0.0022(15)
C23 0.0323(16) 0.069(2) 0.0447(19) 0.0050(17) -0.0034(14) -0.0169(17)
F1 0.0823(18) 0.115(2) 0.0460(13) -0.0053(14) 0.0029(12) 0.0613(18)
F2 0.0607(15) 0.0784(18) 0.0695(16) 0.0045(14) -0.0156(12) 0.0108(13)
F3 0.0584(14) 0.0605(15) 0.0810(17) -0.0022(13) 0.0208(12) -0.0120(12)
F4 0.0636(15) 0.0511(14) 0.109(2) 0.0304(14) 0.0145(14) 0.0108(12)
B1 0.0377(19) 0.044(2) 0.0418(19) 0.0086(16) 0.0085(15) 0.0134(16)
Cl1 0.0673(6) 0.0530(5) 0.0543(5) 0.0004(4) 0.0137(5) -0.0147(5)
Cl2 0.0658(7) 0.0902(8) 0.0769(8) -0.0136(7) -0.0111(6) 0.0349(6)
C24 0.057(2) 0.0455(19) 0.0412(19) 0.0013(15) 0.0015(16) -0.0063(17)
 
_geom_special_details
;
 All esds (except the esd in the dihedral angle between two l.s. planes)
 are estimated using the full covariance matrix.  The cell esds are taken
 into account individually in the estimation of esds in distances, angles
 and torsion angles; correlations between esds in cell parameters are only
 used when they are defined by crystal symmetry.  An approximate (isotropic)
 treatment of cell esds is used for estimating esds involving l.s. planes.
;
 
loop_
 _geom_bond_atom_site_label_1
 _geom_bond_atom_site_label_2
 _geom_bond_distance
 _geom_bond_site_symmetry_2
 _geom_bond_publ_flag
Au1 O1 1.971(2) . ?
Au1 N1 2.008(2) . ?
Au1 C11 2.046(3) . ?
Au1 P1 2.3728(6) . ?
P1 C1 1.840(3) . ?
P1 C20 1.861(3) . ?
P1 C16 1.869(3) . ?
O1 H1 0.835(10) . ?
N1 C9 1.348(3) . ?
N1 C6 1.375(3) . ?
C1 C2 1.384(4) . ?
C1 C6 1.403(4) . ?
C2 C3 1.410(4) . ?
C2 H2 0.9500 . ?
C3 C4 1.371(4) . ?
C3 H3 0.9500 . ?
C4 C5 1.409(4) . ?
C4 H4 0.9500 . ?
C5 C7 1.412(4) . ?
C5 C6 1.417(3) . ?
C7 C8 1.372(4) . ?
C7 H7 0.9500 . ?
C8 C9 1.403(4) . ?
C8 H8 0.9500 . ?
C9 C10 1.465(4) . ?
C10 C15 1.397(4) . ?
C10 C11 1.406(4) . ?
C11 C12 1.376(4) . ?
C12 C13 1.394(4) . ?
C12 H12 0.9500 . ?
C13 C14 1.384(5) . ?
C13 H13 0.9500 . ?
C14 C15 1.385(4) . ?
C14 H14 0.9500 . ?
C15 H15 0.9500 . ?
C16 C19 1.519(4) . ?
C16 C18 1.530(4) . ?
C16 C17 1.536(4) . ?
C17 H171 0.9800 . ?
C17 H172 0.9800 . ?
C17 H173 0.9800 . ?
C18 H181 0.9800 . ?
C18 H182 0.9800 . ?
C18 H183 0.9800 . ?
C19 H191 0.9800 . ?
C19 H192 0.9800 . ?
C19 H193 0.9800 . ?
C20 C21 1.529(4) . ?
C20 C23 1.534(4) . ?
C20 C22 1.542(4) . ?
C21 H211 0.9800 . ?
C21 H212 0.9800 . ?
C21 H213 0.9800 . ?
C22 H221 0.9800 . ?
C22 H222 0.9800 . ?
C22 H223 0.9800 . ?
C23 H231 0.9800 . ?
C23 H232 0.9800 . ?
C23 H233 0.9800 . ?
F1 B1 1.378(5) . ?
F2 B1 1.386(5) . ?
F3 B1 1.367(4) . ?
F4 B1 1.378(5) . ?
Cl1 C24 1.749(4) . ?
Cl2 C24 1.760(4) . ?
C24 H241 0.9900 . ?
C24 H242 0.9900 . ?
 
loop_
 _geom_angle_atom_site_label_1
 _geom_angle_atom_site_label_2
 _geom_angle_atom_site_label_3
 _geom_angle
 _geom_angle_site_symmetry_1
 _geom_angle_site_symmetry_3
 _geom_angle_publ_flag
O1 Au1 N1 172.64(11) . . ?
O1 Au1 C11 91.28(11) . . ?
N1 Au1 C11 81.69(10) . . ?
O1 Au1 P1 102.22(8) . . ?
N1 Au1 P1 84.79(6) . . ?
C11 Au1 P1 166.48(8) . . ?
C1 P1 C20 108.44(13) . . ?
C1 P1 C16 106.37(12) . . ?
C20 P1 C16 117.08(13) . . ?
C1 P1 Au1 96.68(8) . . ?
C20 P1 Au1 113.27(9) . . ?
C16 P1 Au1 112.64(9) . . ?
Au1 O1 H1 110.8(11) . . ?
C9 N1 C6 122.9(2) . . ?
C9 N1 Au1 115.90(18) . . ?
C6 N1 Au1 121.17(17) . . ?
C2 C1 C6 118.4(2) . . ?
C2 C1 P1 124.7(2) . . ?
C6 C1 P1 116.83(18) . . ?
C1 C2 C3 121.3(3) . . ?
C1 C2 H2 119.3 . . ?
C3 C2 H2 119.3 . . ?
C4 C3 C2 119.9(3) . . ?
C4 C3 H3 120.1 . . ?
C2 C3 H3 120.1 . . ?
C3 C4 C5 120.9(3) . . ?
C3 C4 H4 119.6 . . ?
C5 C4 H4 119.6 . . ?
C4 C5 C7 123.1(3) . . ?
C4 C5 C6 118.3(3) . . ?
C7 C5 C6 118.7(2) . . ?
N1 C6 C1 120.4(2) . . ?
N1 C6 C5 118.3(2) . . ?
C1 C6 C5 121.2(2) . . ?
C8 C7 C5 120.7(3) . . ?
C8 C7 H7 119.6 . . ?
C5 C7 H7 119.6 . . ?
C7 C8 C9 119.5(3) . . ?
C7 C8 H8 120.3 . . ?
C9 C8 H8 120.3 . . ?
N1 C9 C8 119.8(2) . . ?
N1 C9 C10 114.5(2) . . ?
C8 C9 C10 125.6(2) . . ?
C15 C10 C11 119.8(2) . . ?
C15 C10 C9 123.7(2) . . ?
C11 C10 C9 116.5(2) . . ?
C12 C11 C10 120.5(2) . . ?
C12 C11 Au1 128.1(2) . . ?
C10 C11 Au1 111.37(19) . . ?
C11 C12 C13 119.2(3) . . ?
C11 C12 H12 120.4 . . ?
C13 C12 H12 120.4 . . ?
C14 C13 C12 120.8(3) . . ?
C14 C13 H13 119.6 . . ?
C12 C13 H13 119.6 . . ?
C13 C14 C15 120.5(3) . . ?
C13 C14 H14 119.8 . . ?
C15 C14 H14 119.8 . . ?
C14 C15 C10 119.2(3) . . ?
C14 C15 H15 120.4 . . ?
C10 C15 H15 120.4 . . ?
C19 C16 C18 110.4(3) . . ?
C19 C16 C17 109.5(3) . . ?
C18 C16 C17 108.2(3) . . ?
C19 C16 P1 114.0(2) . . ?
C18 C16 P1 108.9(2) . . ?
C17 C16 P1 105.51(19) . . ?
C16 C17 H171 109.5 . . ?
C16 C17 H172 109.5 . . ?
H171 C17 H172 109.5 . . ?
C16 C17 H173 109.5 . . ?
H171 C17 H173 109.5 . . ?
H172 C17 H173 109.5 . . ?
C16 C18 H181 109.5 . . ?
C16 C18 H182 109.5 . . ?
H181 C18 H182 109.5 . . ?
C16 C18 H183 109.5 . . ?
H181 C18 H183 109.5 . . ?
H182 C18 H183 109.5 . . ?
C16 C19 H191 109.5 . . ?
C16 C19 H192 109.5 . . ?
H191 C19 H192 109.5 . . ?
C16 C19 H193 109.5 . . ?
H191 C19 H193 109.5 . . ?
H192 C19 H193 109.5 . . ?
C21 C20 C23 108.9(3) . . ?
C21 C20 C22 109.5(3) . . ?
C23 C20 C22 110.5(3) . . ?
C21 C20 P1 113.9(2) . . ?
C23 C20 P1 108.9(2) . . ?
C22 C20 P1 105.0(2) . . ?
C20 C21 H211 109.5 . . ?
C20 C21 H212 109.5 . . ?
H211 C21 H212 109.5 . . ?
C20 C21 H213 109.5 . . ?
H211 C21 H213 109.5 . . ?
H212 C21 H213 109.5 . . ?
C20 C22 H221 109.5 . . ?
C20 C22 H222 109.5 . . ?
H221 C22 H222 109.5 . . ?
C20 C22 H223 109.5 . . ?
H221 C22 H223 109.5 . . ?
H222 C22 H223 109.5 . . ?
C20 C23 H231 109.5 . . ?
C20 C23 H232 109.5 . . ?
H231 C23 H232 109.5 . . ?
C20 C23 H233 109.5 . . ?
H231 C23 H233 109.5 . . ?
H232 C23 H233 109.5 . . ?
F3 B1 F4 108.2(3) . . ?
F3 B1 F1 110.0(4) . . ?
F4 B1 F1 110.4(3) . . ?
F3 B1 F2 107.7(3) . . ?
F4 B1 F2 110.8(4) . . ?
F1 B1 F2 109.7(3) . . ?
Cl1 C24 Cl2 112.5(2) . . ?
Cl1 C24 H241 109.1 . . ?
Cl2 C24 H241 109.1 . . ?
Cl1 C24 H242 109.1 . . ?
Cl2 C24 H242 109.1 . . ?
H241 C24 H242 107.8 . . ?
 
loop_
 _geom_torsion_atom_site_label_1
 _geom_torsion_atom_site_label_2
 _geom_torsion_atom_site_label_3
 _geom_torsion_atom_site_label_4
 _geom_torsion
 _geom_torsion_site_symmetry_1
 _geom_torsion_site_symmetry_2
 _geom_torsion_site_symmetry_3
 _geom_torsion_site_symmetry_4
 _geom_torsion_publ_flag
C20 P1 C1 C2 62.4(3) . . . . ?
C16 P1 C1 C2 -64.3(3) . . . . ?
Au1 P1 C1 C2 179.7(2) . . . . ?
C20 P1 C1 C6 -120.3(2) . . . . ?
C16 P1 C1 C6 113.0(2) . . . . ?
Au1 P1 C1 C6 -3.0(2) . . . . ?
C6 C1 C2 C3 -1.3(4) . . . . ?
P1 C1 C2 C3 175.9(2) . . . . ?
C1 C2 C3 C4 -0.4(5) . . . . ?
C2 C3 C4 C5 1.7(5) . . . . ?
C3 C4 C5 C7 179.3(3) . . . . ?
C3 C4 C5 C6 -1.2(4) . . . . ?
C9 N1 C6 C1 179.6(2) . . . . ?
Au1 N1 C6 C1 -1.0(3) . . . . ?
C9 N1 C6 C5 -1.7(4) . . . . ?
Au1 N1 C6 C5 177.73(18) . . . . ?
C2 C1 C6 N1 -179.6(2) . . . . ?
P1 C1 C6 N1 3.0(3) . . . . ?
C2 C1 C6 C5 1.8(4) . . . . ?
P1 C1 C6 C5 -175.7(2) . . . . ?
C4 C5 C6 N1 -179.2(2) . . . . ?
C7 C5 C6 N1 0.3(4) . . . . ?
C4 C5 C6 C1 -0.6(4) . . . . ?
C7 C5 C6 C1 179.0(2) . . . . ?
C4 C5 C7 C8 -179.4(3) . . . . ?
C6 C5 C7 C8 1.0(4) . . . . ?
C5 C7 C8 C9 -1.1(4) . . . . ?
C6 N1 C9 C8 1.7(4) . . . . ?
Au1 N1 C9 C8 -177.78(19) . . . . ?
C6 N1 C9 C10 -178.4(2) . . . . ?
Au1 N1 C9 C10 2.2(3) . . . . ?
C7 C8 C9 N1 -0.2(4) . . . . ?
C7 C8 C9 C10 179.8(3) . . . . ?
N1 C9 C10 C15 178.0(2) . . . . ?
C8 C9 C10 C15 -2.1(4) . . . . ?
N1 C9 C10 C11 -1.3(3) . . . . ?
C8 C9 C10 C11 178.7(3) . . . . ?
C15 C10 C11 C12 0.6(4) . . . . ?
C9 C10 C11 C12 179.9(2) . . . . ?
C15 C10 C11 Au1 -179.49(19) . . . . ?
C9 C10 C11 Au1 -0.2(3) . . . . ?
C10 C11 C12 C13 -0.7(4) . . . . ?
Au1 C11 C12 C13 179.4(2) . . . . ?
C11 C12 C13 C14 0.1(4) . . . . ?
C12 C13 C14 C15 0.7(4) . . . . ?
C13 C14 C15 C10 -0.8(4) . . . . ?
C11 C10 C15 C14 0.2(4) . . . . ?
C9 C10 C15 C14 -179.1(2) . . . . ?
C1 P1 C16 C19 71.9(2) . . . . ?
C20 P1 C16 C19 -49.4(3) . . . . ?
Au1 P1 C16 C19 176.6(2) . . . . ?
C1 P1 C16 C18 -164.2(2) . . . . ?
C20 P1 C16 C18 74.4(2) . . . . ?
Au1 P1 C16 C18 -59.5(2) . . . . ?
C1 P1 C16 C17 -48.3(2) . . . . ?
C20 P1 C16 C17 -169.62(19) . . . . ?
Au1 P1 C16 C17 56.4(2) . . . . ?
C1 P1 C20 C21 -53.9(2) . . . . ?
C16 P1 C20 C21 66.3(3) . . . . ?
Au1 P1 C20 C21 -160.02(19) . . . . ?
C1 P1 C20 C23 -175.7(2) . . . . ?
C16 P1 C20 C23 -55.5(3) . . . . ?
Au1 P1 C20 C23 78.2(2) . . . . ?
C1 P1 C20 C22 65.8(2) . . . . ?
C16 P1 C20 C22 -173.9(2) . . . . ?
Au1 P1 C20 C22 -40.2(2) . . . . ?
 

_shelx_res_file
;
TITL NV2110_cu_a.res in P2(1)/n
    x.res
    created by SHELXL-2018/3 at 13:53:28 on 23-Apr-2021
REM Old TITL NV2110_cu in P2(1)/n
REM SHELXT solution in P2(1)/n: R1 0.076, Rweak 0.005, Alpha 0.028
REM <I/s> 0.815 for 247 systematic absences, Orientation as input
REM Formula found by SHELXT: C18 B1 O1 F1 Cl3 Au
CELL 1.54184 12.842187 13.438433 15.213971 90 92.095 90
ZERR 4 0.000107 0.000098 0.000128 0 0.0007 0
LATT 1
SYMM 0.5-X,0.5+Y,0.5-Z
SFAC C H Au B Cl F N O P
UNIT 96 120 4 4 8 16 4 4 4
DFIX 0.84 0.01 O1 H1
DFIX 2.4 0.01 Au1 H1
L.S. 8
PLAN  10
TEMP -113
CONF
BOND $H
fmap 2
acta
WGHT    0.024100    4.837300
EXTI    0.000306
FVAR       2.79171
AU1   3    0.227033    0.507370    0.414665    11.00000    0.01989    0.02406 =
         0.02343    0.00665    0.00203    0.00171
P1    9    0.153222    0.631643    0.320748    11.00000    0.02051    0.02121 =
         0.02126    0.00399    0.00173    0.00236
O1    8    0.107385    0.467797    0.484344    11.00000    0.02586    0.10089 =
         0.05775    0.04767    0.01427    0.00274
H1    2    0.094149    0.511468    0.521318    11.00000    0.09452
N1    7    0.357425    0.531204    0.348793    11.00000    0.01958    0.01999 =
         0.02201   -0.00131    0.00092    0.00070
C1    1    0.269480    0.652773    0.256109    11.00000    0.03539    0.01880 =
         0.01831    0.00110    0.00337    0.00248
C2    1    0.275091    0.719965    0.187472    11.00000    0.02984    0.03009 =
         0.02878    0.00506    0.00500    0.00327
AFIX  43
H2    2    0.214384    0.755699    0.168850    11.00000   -1.20000
AFIX   0
C3    1    0.369074    0.736437    0.144646    11.00000    0.03622    0.03068 =
         0.02797    0.00852    0.00866   -0.00026
AFIX  43
H3    2    0.371225    0.782553    0.097420    11.00000   -1.20000
AFIX   0
C4    1    0.457338    0.685782    0.171283    11.00000    0.02976    0.03656 =
         0.02776    0.00340    0.00869   -0.00298
AFIX  43
H4    2    0.520914    0.698451    0.143282    11.00000   -1.20000
AFIX   0
C5    1    0.455024    0.615151    0.239664    11.00000    0.02557    0.02835 =
         0.02369   -0.00187    0.00395   -0.00022
C6    1    0.359510    0.599254    0.281345    11.00000    0.02515    0.02133 =
         0.01938   -0.00314    0.00354   -0.00213
C7    1    0.543446    0.560240    0.268837    11.00000    0.02349    0.03581 =
         0.02872   -0.00329    0.00668   -0.00025
AFIX  43
H7    2    0.608273    0.570892    0.242198    11.00000   -1.20000
AFIX   0
C8    1    0.536796    0.491690    0.335207    11.00000    0.02309    0.03028 =
         0.02845   -0.00439   -0.00061    0.00517
AFIX  43
H8    2    0.596331    0.454198    0.353788    11.00000   -1.20000
AFIX   0
C9    1    0.441376    0.477410    0.375411    11.00000    0.02360    0.01932 =
         0.02230   -0.00544   -0.00231    0.00298
C10   1    0.422371    0.407049    0.446593    11.00000    0.02739    0.01914 =
         0.02300   -0.00376   -0.00287    0.00050
C11   1    0.321203    0.406038    0.478892    11.00000    0.02600    0.02119 =
         0.02792    0.00168   -0.00544    0.00062
C12   1    0.296137    0.342245    0.545630    11.00000    0.03125    0.02810 =
         0.03277    0.00662   -0.00189   -0.00239
AFIX  43
H12   2    0.227951    0.342211    0.567832    11.00000   -1.20000
AFIX   0
C13   1    0.372032    0.277672    0.580257    11.00000    0.04492    0.02492 =
         0.03224    0.00604   -0.00649   -0.00132
AFIX  43
H13   2    0.355221    0.233350    0.626271    11.00000   -1.20000
AFIX   0
C14   1    0.471615    0.277381    0.548373    11.00000    0.04026    0.02153 =
         0.03448   -0.00034   -0.01079    0.00576
AFIX  43
H14   2    0.522271    0.232437    0.572234    11.00000   -1.20000
AFIX   0
C15   1    0.497942    0.342160    0.481914    11.00000    0.03023    0.02296 =
         0.03053   -0.00443   -0.00556    0.00491
AFIX  43
H15   2    0.566559    0.342464    0.460606    11.00000   -1.20000
AFIX   0
C16   1    0.128249    0.750747    0.379832    11.00000    0.02828    0.02642 =
         0.02665   -0.00226    0.00299    0.00532
C17   1    0.233878    0.781592    0.421984    11.00000    0.03810    0.03685 =
         0.03634   -0.00760   -0.00610    0.00075
AFIX 137
H171  2    0.262094    0.726744    0.458006    11.00000   -1.50000
H172  2    0.224567    0.840281    0.459116    11.00000   -1.50000
H173  2    0.282362    0.797430    0.375722    11.00000   -1.50000
AFIX   0
C18   1    0.053158    0.730554    0.453598    11.00000    0.04859    0.04607 =
         0.04233   -0.00804    0.02152    0.00237
AFIX 137
H181  2   -0.015429    0.712645    0.427993    11.00000   -1.50000
H182  2    0.046850    0.790447    0.489764    11.00000   -1.50000
H183  2    0.079968    0.675639    0.490271    11.00000   -1.50000
AFIX   0
C19   1    0.086830    0.833863    0.320592    11.00000    0.05362    0.03060 =
         0.03999   -0.00088   -0.00506    0.01606
AFIX 137
H191  2    0.133511    0.843172    0.271723    11.00000   -1.50000
H192  2    0.083206    0.895688    0.354505    11.00000   -1.50000
H193  2    0.017054    0.816347    0.297333    11.00000   -1.50000
AFIX   0
C20   1    0.046951    0.583954    0.245656    11.00000    0.03021    0.02963 =
         0.02939    0.00252   -0.00420   -0.00211
C21   1    0.024359    0.649927    0.165341    11.00000    0.04253    0.03815 =
         0.03026    0.00276   -0.00877    0.00312
AFIX 137
H211  2    0.005670    0.716917    0.184746    11.00000   -1.50000
H212  2   -0.033566    0.621614    0.129845    11.00000   -1.50000
H213  2    0.086492    0.653538    0.129948    11.00000   -1.50000
AFIX   0
C22   1    0.084931    0.481094    0.215386    11.00000    0.06214    0.02909 =
         0.04669   -0.00329   -0.01481    0.00225
AFIX 137
H221  2    0.153234    0.488010    0.189346    11.00000   -1.50000
H222  2    0.034996    0.453748    0.171518    11.00000   -1.50000
H223  2    0.090703    0.436144    0.266052    11.00000   -1.50000
AFIX   0
C23   1   -0.052839    0.573571    0.297294    11.00000    0.03226    0.06919 =
         0.04475    0.00502   -0.00337   -0.01691
AFIX 137
H231  2   -0.037159    0.537971    0.352417    11.00000   -1.50000
H232  2   -0.104978    0.536287    0.262066    11.00000   -1.50000
H233  2   -0.080140    0.639823    0.310392    11.00000   -1.50000
AFIX   0

F1    6    0.741355    0.357622    0.385485    11.00000    0.08233    0.11549 =
         0.04601   -0.00531    0.00293    0.06130
F2    6    0.681765    0.315472    0.248859    11.00000    0.06070    0.07839 =
         0.06955    0.00451   -0.01556    0.01084
F3    6    0.851323    0.339742    0.274862    11.00000    0.05836    0.06052 =
         0.08097   -0.00217    0.02078   -0.01203
F4    6    0.778044    0.205328    0.331263    11.00000    0.06361    0.05110 =
         0.10893    0.03043    0.01446    0.01085
B1    4    0.762718    0.304283    0.310890    11.00000    0.03775    0.04375 =
         0.04176    0.00857    0.00855    0.01339
CL1   5    0.652277   -0.024375    0.479147    11.00000    0.06734    0.05305 =
         0.05432    0.00037    0.01375   -0.01472
CL2   5    0.877409   -0.028092    0.459795    11.00000    0.06578    0.09017 =
         0.07689   -0.01361   -0.01113    0.03491
C24   1    0.754237   -0.015537    0.406407    11.00000    0.05675    0.04551 =
         0.04117    0.00127    0.00148   -0.00626
AFIX  23
H241  2    0.750403    0.049738    0.376297    11.00000   -1.20000
H242  2    0.745790   -0.068024    0.361044    11.00000   -1.20000
AFIX   0
HKLF 4




REM  NV2110_cu_a.res in P2(1)/n
REM wR2 = 0.0530, GooF = S = 1.044, Restrained GooF = 1.044 for all data
REM R1 = 0.0210 for 5278 Fo > 4sig(Fo) and 0.0218 for all 5470 data
REM 327 parameters refined using 2 restraints

END

WGHT      0.0241      4.8373

REM Highest difference peak  1.186,  deepest hole -0.894,  1-sigma level  0.089
Q1    1   0.3319  0.6628  0.2554  11.00000  0.05    1.19
Q2    1   0.2264  0.5432  0.4527  11.00000  0.05    0.93
Q3    1   0.8409 -0.0616  0.5040  11.00000  0.05    0.89
Q4    1   0.8563 -0.0829  0.4437  11.00000  0.05    0.61
Q5    1   0.2853  0.5042  0.3944  11.00000  0.05    0.47
Q6    1   0.7024 -0.0474  0.5177  11.00000  0.05    0.45
Q7    1   0.6968  0.3053  0.3626  11.00000  0.05    0.45
Q8    1   0.0746  0.5349  0.2332  11.00000  0.05    0.42
Q9    1   0.7318  0.3650  0.2502  11.00000  0.05    0.40
Q10   1   0.4567  0.6543  0.2103  11.00000  0.05    0.40
;
_shelx_res_checksum   82309

_shelx_hkl_file
;
   0   0  -1 66.2037 23.2183  18
   0   0  -1 25.2109 22.6908   4
   0   0  -1 83.7204 23.4782  16
   0   0   1 21.4875 17.7070  17
   0   0  -2 49147.7 683.489  18
   0   0   2 46731.7 644.349  17
   0   0  -2 45368.9 688.540   4
   0   0  -2 49615.6 680.270  16
   0   0  -3 70.2546 53.5757  18
   0   0  -3 178.868 63.2431   4
   0   0  -3 141.105 65.2162  16
   0   0   3 54.8172 44.9768  17
   0   0   4 4135.13 278.020  17
   0   0  -4 3793.27 269.249   4
   0   0  -4 3944.43 298.032  16
   0   0  -5-3.51760 69.2419   4
   0   0   5 22.5549 61.2712  17
   0   0  -5-16.6373 79.4677  16
   0   0  -6 210161. 2374.14   4
   0   0  -6 212476. 1778.27   1
   0   0   6 210588. 2491.20  17
   0   0  -6 210177. 2753.33  16
   0   0  -7 58.5616 35.9970   1
   0   0   7 65.6077 111.063   2
   0   0  -7-113.516 83.8417   4
   0   0   7-26.2040 98.3905  17
   0   0  -7 130.196 127.505  16
   0   0  -8 56511.9 1439.43   4
   0   0   8 58482.5 2091.89   2
   0   0   8 53280.1 1580.41  17
   0   0  -8 52704.9 1790.76  16
   0   0   9 108.469 219.400   2
   0   0  -9 1.78466 98.4893   4
   0   0   9 183.421 149.660  17
   0   0  -9-117.214 234.272  16
   0   0  10 23030.1 1328.20  17
   0   0 -10 24970.7 1611.86  16
   0   0  10 23253.1 1684.28   2
   0   0 -11 256.019 235.146  16
   0   0  11-519.049 283.857  17
   0   0  11-319.788 261.927   2
   0   0  12 196366. 4866.95   2
   0   0 -12 195405. 2310.03  12
   0   0 -12 193493. 5951.69  16
   0   0 -12 201293. 2837.54  10
   0   0 -12 191499. 1929.89   9
   0   0  12 190174. 4990.80  17
   0   0  13 85.3149 134.241   2
   0   0 -13-49.7785 171.196  12
   0   0 -13 68.4868 197.460   7
   0   0 -13-2.04575 214.488  10
   0   0 -13-381.534 443.014  16
   0   0  13-554.256 363.379  17
   0   0 -13 8.56620 74.7936   9
   0   0 -14 1294.75 293.766  10
   0   0 -14 1058.79 273.146   7
   0   0 -14 1759.79 280.969  12
   0   0 -14 1114.63 145.008   9
   0   0 -15 2.05162 177.966   7
   0   0 -15 352.247 227.130  12
   0   0 -16 26795.4 1187.16  10
   0   0 -16 25014.5 962.659   7
   0   0 -17-18.2149 142.565  10
   0   0 -17-67.7214 133.585   7
   0   0 -18 49573.7 925.740  10
   0   0 -18 50581.6 893.050   7
   0   0 -19-32.5298 52.1073  10
   0   0 -19-63.9127 52.3018   7
   0   1   0 49.5036 21.2425   2
   0   1   1 387335. 2232.57  17
   0   1   1 416731. 2634.58   2
   0   1   2 3956.63 504.461   2
   0  -1   2 3077.65 136.303   3
   0  -1  -2 3316.42 236.484   4
   0  -1  -2 3335.90 121.996   3
   0  -1  -2 2898.68 199.776  16
   0   1  -2 3352.83 154.775  16
   0   1  -2 3224.93 350.906  18
   0  -1   2 3608.83 148.706  19
   0   1   3 80092.6 1850.62   2
   0   1  -3 77697.8 1084.34   4
   0  -1  -3 82106.1 1257.74   4
   0   1  -3 76387.4 966.261  16
   0  -1  -3 83103.2 1200.46  16
   0   1  -3 81407.3 1556.71  18
   0   1   3 81338.7 1055.97  17
   0  -1   3 81993.7 869.249  19
   0   1   4 109567. 2266.87   2
   0   1  -4 110934. 1418.32   4
   0  -1  -4 120583. 1643.96   4
   0   1  -4 107977. 1393.91  16
   0  -1  -4 115869. 1660.87  16
   0  -1   4 110243. 1475.34  17
   0   1  -4 115930. 1810.58  18
   0   1   4 115974. 1468.03  17
   0  -1   4 108777. 1728.90  19
   0  -1  -5 321885. 2914.70   4
   0   1  -5 317842. 2601.34   4
   0   1   5 335627. 4297.60   2
   0  -1  -5 333847. 3210.56  16
   0   1  -5 324511. 2837.99  16
   0   1  -5 340251. 3292.96  18
   0  -1   5 332717. 2868.08  17
   0   1   5 343409. 2889.34  17
   0  -1  -6 26209.0 896.391   4
   0   1  -6 25029.8 790.429   4
   0   1   6 26025.3 1323.69   2
   0   1  -6 24984.9 902.173  16
   0  -1  -6 24731.2 998.591  16
   0  -1   6 25423.0 882.348  17
   0   1   6 26769.6 917.480  17
   0   1  -7 234126. 2604.59   4
   0   1  -7 230183. 2595.08   1
   0   1   7 236324. 4341.81   2
   0   1  -7 227387. 3141.43  16
   0  -1  -7 229673. 3431.20  16
   0  -1   7 228782. 2905.22  17
   0   1   7 227675. 3029.21  17
   0   1  -8 5303.39 423.451   4
   0  -1  -8 5136.19 467.361   4
   0   1   8 5617.86 755.183   2
   0   1  -8 5210.36 428.612   1
   0   1  -8 4630.87 518.108  16
   0  -1  -8 5113.06 594.109  16
   0  -1   8 4943.89 478.047  17
   0   1   8 4984.91 523.524  17
   0   1  -9 6864.73 521.638   4
   0  -1   9 6299.04 596.439  17
   0   1   9 7215.50 700.211  17
   0  -1  -9 8397.89 846.840  16
   0   1  -9 6564.52 711.808  16
   0  -1   9 5995.40 704.262   2
   0   1   9 6645.99 870.576   2
   0  -1  10 4902.89 581.941  17
   0   1  10 5203.92 700.553  17
   0  -1  10 4811.42 712.978   2
   0   1  10 5060.29 742.346   2
   0   1 -10 5573.60 778.706  16
   0  -1 -10 5654.42 789.280  16
   0  -1  11 159494. 3779.74  17
   0  -1 -11 166256. 2323.68  10
   0  -1 -11 166063. 4873.92  16
   0   1 -11 170275. 4755.01  16
   0  -1  11 169334. 4670.76   2
   0   1  11 169631. 4149.62   2
   0   1  12 387.220 226.193   2
   0  -1  12-303.332 292.482   2
   0  -1 -12 20.8985 183.771  12
   0   1 -12 64.2712 132.366  12
   0   1 -12 24.0355 133.951   9
   0   1 -12-34.4901 141.610  10
   0  -1 -12 150.744 116.019  10
   0   1  12-585.294 321.001  17
   0  -1  12-767.863 370.673  17
   0  -1 -12 502.341 431.758  16
   0   1 -12 127.110 285.176  16
   0  -1 -12-88.1121 205.008   7
   0  -1 -13 79016.9 2256.79   7
   0   1  13 86332.1 2901.23   2
   0  -1  13 87365.3 3380.14   2
   0   1 -13 83505.0 1499.01  12
   0  -1 -13 85477.2 1697.10  12
   0  -1  13 80571.7 3465.99  17
   0  -1 -13 90323.7 2096.17  10
   0   1 -13 89236.7 2085.82  10
   0  -1 -13 77399.6 4435.02  16
   0   1 -13 85983.8 1342.19   9
   0  -1 -14 361.079 197.811  10
   0   1 -14 448.127 189.077  10
   0   1 -14 438.945 111.837   9
   0   1 -14 486.850 257.524   7
   0  -1 -14 487.822 283.439   7
   0   1 -14 278.440 147.023  12
   0  -1 -14 832.185 296.985  12
   0   1 -15 1756.94 302.124  12
   0   1 -15 1237.78 272.082   7
   0  -1 -15 1497.50 306.010   7
   0   1 -15 1276.09 335.227  10
   0   1 -15 1413.64 155.135   9
   0  -1 -15 1254.13 315.214  10
   0  -1 -16 111.855 221.769  10
   0   1 -16 36.0605 227.616  10
   0  -1 -16 150.470 173.038   7
   0   1 -16 237.889 148.658   7
   0   1 -16 319.446 82.0441   9
   0   1 -17 37717.1 968.907   7
   0  -1 -17 39098.5 986.967   7
   0  -1 -17 39317.9 1111.26  10
   0   1 -17 39102.8 1067.13  10
   0  -1 -18 188.947 89.1164   7
   0   1 -18 44.9910 73.0724   7
   0  -1 -18 53.5975 68.8941  10
   0   1 -18 103.234 74.0611  10
   0  -1 -19 21049.0 404.766   7
   0   1 -19 20391.2 384.708   7
   0  -1 -19 20686.4 412.403  10
   0   2   0 544530. 2254.60   2
   0   2   1 93290.3 1065.30   2
   0  -2   1 91312.7 988.228   3
   0  -2   2 372718. 2030.41   3
   0  -2  -2 374185. 1932.17   3
   0   2   2 360767. 3327.72   2
   0  -2   2 353712. 1945.28  19
   0   2   2 373292. 2169.52  17
   0   2  -2 363889. 2078.13  18
   0  -2  -2 365545. 2354.42  16
   0   2  -2 367122. 1362.31  16
   0  -2   2 353528. 2209.38  17
   0  -2  -3 54566.1 746.564   3
   0  -2   3 51733.4 776.289   3
   0   2   3 51783.4 1758.46   2
   0  -2   3 49518.2 739.566  19
   0   2   3 56825.1 1557.39  17
   0   2  -3 49444.2 1455.88  18
   0  -2  -3 56415.4 1075.79  16
   0   2  -3 53062.1 720.508  16
   0   2  -4 10960.2 484.824   4
   0  -2   4 12191.7 379.195   3
   0   2   4 12689.4 828.647   2
   0  -2   4 12140.1 393.351  19
   0   2   4 12403.6 659.413  17
   0  -2   4 12420.0 521.886  17
   0   2  -4 12088.1 752.719  18
   0  -2  -4 12973.4 595.545  16
   0   2  -4 11785.3 426.660  16
   0   2  -5 13512.6 561.624   4
   0   2   5 13275.9 896.732   2
   0  -2   5 12793.0 506.370  19
   0   2   5 14221.4 734.498  17
   0   2  -5 13526.9 824.206  18
   0  -2   5 13179.3 600.757  17
   0  -2  -5 13560.7 686.558  16
   0   2  -5 12405.6 523.262  16
   0   2  -6 302973. 2806.28   4
   0   2   6 299962. 4487.18   2
   0  -2   6 286052. 2851.75  19
   0  -2  -6 275803. 3488.01  16
   0   2  -6 272694. 2832.31  16
   0  -2   6 279570. 2995.54  17
   0   2  -6 295138. 3839.34  18
   0   2   6 287290. 3597.90  17
   0   2  -7 1278.31 291.049  18
   0   2  -7 983.544 191.995  16
   0   2   7 970.086 241.058  17
   0  -2   7 1007.57 211.628  17
   0  -2  -7 999.984 258.052  16
   0   2   7 1383.43 346.325   2
   0   2  -7 1215.73 196.269   4
   0  -2   8 8152.15 618.781  17
   0   2   8 7742.07 749.111  17
   0  -2  -8 7679.42 744.867  16
   0   2  -8 7206.33 617.869  16
   0   2   8 7333.61 767.213   2
   0   2  -8 6824.47 581.745   1
   0   2  -8 7877.80 510.304   4
   0   2   9 19265.8 1318.94  17
   0  -2   9 21394.2 1096.65  17
   0   2  -9 21052.6 1207.19  16
   0  -2  -9 19234.9 1332.72  16
   0   2   9 20868.7 1305.71   2
   0   2  -9 19841.6 860.665   4
   0  -2  10 91085.0 2504.93  17
   0   2  10 93330.8 3136.77  17
   0  -2 -10 94301.6 3308.08  16
   0   2 -10 91525.8 2947.88  16
   0  -2  10 93181.6 2929.87   2
   0   2  10 87732.5 2717.22   2
   0   2  11 29876.6 1628.45   2
   0  -2  11 33755.3 1959.20   2
   0  -2  11 30168.5 1620.59  17
   0  -2 -11 30218.0 997.825  10
   0   2 -11 31713.4 1009.33  10
   0  -2 -11 30453.1 2132.32  16
   0  -2 -11 29673.6 1125.59   7
   0  -2 -12 113080. 2444.84   7
   0   2  12 114012. 3184.89   2
   0  -2  12 118084. 4098.12   2
   0  -2 -12 116057. 2009.14  12
   0  -2  12 119869. 3639.49  17
   0   2 -12 119634. 2169.77  10
   0  -2 -12 121320. 2210.43  10
   0  -2 -12 118626. 4786.25  16
   0   2 -12 113720. 1945.04   9
   0   2  13 2207.11 455.854   2
   0  -2  13 1878.26 516.990   2
   0  -2 -13 2593.21 380.851  12
   0   2 -13 1735.57 223.247   9
   0  -2  13 1761.93 530.802  17
   0  -2 -13 2520.66 844.155  16
   0  -2 -13 1861.16 393.785   7
   0  -2 -13 1683.76 299.856  10
   0   2 -13 2114.46 336.156  10
   0   2 -14 17544.8 608.480   9
   0  -2 -14 19485.1 1069.82  10
   0   2 -14 17862.0 1029.66  10
   0  -2 -14 18562.2 818.251  12
   0  -2 -14 15699.7 1009.90   7
   0   2 -15 1110.59 160.120   9
   0   2 -15 804.032 284.912  10
   0  -2 -15 577.088 235.716  10
   0  -2 -15 842.616 229.745   7
   0   2 -15 1068.77 278.782   7
   0   2 -16 59125.2 898.038   9
   0   2 -16 63183.0 1707.01  10
   0  -2 -16 60210.7 1723.14  10
   0   2 -16 57743.9 1413.43   7
   0  -2 -16 59363.8 1433.84   7
   0   2 -17 55.7910 96.8518  10
   0  -2 -17-59.3441 130.932  10
   0  -2 -17 27.1703 100.964   7
   0   2 -17 9.26692 112.685   7
   0   2 -17-40.1428 64.7361   9
   0  -2 -18 46046.6 815.981   7
   0   2 -18 43858.9 785.369   7
   0  -2 -18 46320.5 879.794  10
   0   2 -18 45060.0 770.890  10
   0  -2 -19 202.886 52.3660   7
   0  -2 -19 161.192 47.3766  10
   0   3   0 54.4819 56.1082   2
   0   3   1 110313. 1304.29   2
   0  -3  -1 108129. 1302.61   3
   0  -3   1 101600. 1139.62  17
   0  -3  -1 105309. 1167.95  16
   0  -3   1 105849. 1319.27  19
   0   3   2 24747.8 757.103   2
   0  -3   2 24263.0 623.087  19
   0  -3  -2 23440.6 618.461   3
   0  -3   2 25172.3 647.470   3
   0  -3  -2 24791.0 669.216  16
   0  -3   2 24301.6 630.362  17
   0   3  -2 24269.2 581.506  18
   0   3   3 200151. 1127.78   1
   0  -3   3 196219. 1768.66  19
   0  -3  -3 194701. 1813.19   3
   0  -3   3 194672. 1826.81   3
   0  -3  -3 199669. 2180.72  16
   0   3   3 197086. 1593.65  17
   0   3  -3 194692. 2065.24  18
   0  -3   4 131724. 1462.03  19
   0  -3   4 129408. 1503.92   3
   0  -3  -4 132483. 1530.38   3
   0  -3  -4 140985. 2069.61  16
   0   3  -4 133764. 1292.46  16
   0   3  -4 138617. 2936.73  18
   0   3   4 143313. 2596.90  17
   0  -3   4 133603. 1840.01  17
   0   3   5 383920. 4903.90   2
   0  -3   5 419625. 2772.71  19
   0   3  -5 415876. 3399.45   4
   0  -3  -5 421884. 4032.86  16
   0   3  -5 417684. 2795.52  16
   0   3   5 407982. 3891.18  17
   0  -3   5 422842. 3553.60  17
   0   3  -5 396471. 4306.10  18
   0   3   6 12054.6 860.909   2
   0  -3   6 11079.9 531.822  19
   0  -3  -6 11960.9 770.665  16
   0   3  -6 11576.9 552.662  16
   0   3  -6 12423.1 608.652   4
   0   3  -6 13603.4 984.819  18
   0  -3   6 10783.0 622.404  17
   0   3   6 11765.6 727.745  17
   0   3  -7 84243.8 1639.06   4
   0   3   7 76733.1 2202.29   2
   0  -3  -7 82086.7 2236.18  16
   0   3  -7 86307.1 1760.31  16
   0  -3   7 79974.9 1844.55  17
   0   3  -7 85494.9 2389.34  18
   0   3   7 82882.2 2082.93  17
   0   3  -8 99.3374 85.8059   4
   0  -3  -8 279.881 216.903  16
   0   3  -8 407.657 158.112  16
   0   3   8 238.769 146.290  17
   0  -3   8-23.1946 152.182  17
   0   3   8-206.579 162.712   2
   0  -3  -9 680.323 314.753  16
   0  -3   9 411.234 209.012  17
   0   3   9 166.366 169.486   2
   0   3  -9 872.498 278.315   1
   0  -3  10 11823.5 928.974  17
   0   3  10 13853.0 1032.48   2
   0  -3 -10 12112.8 1237.01  16
   0  -3 -11 175964. 2732.87   7
   0  -3  11 184879. 4447.73   2
   0   3  11 173442. 3745.01   2
   0  -3 -11 169888. 2491.91  12
   0  -3  11 167067. 3846.10  17
   0   3 -11 176929. 2362.25  10
   0  -3 -11 175376. 2401.77  10
   0  -3 -11 176090. 5279.41  16
   0   3 -11 165508. 2242.36   9
   0  -3  12 660.776 328.729   2
   0   3  12 807.197 275.192   2
   0  -3 -12 1372.18 346.497  12
   0   3 -12 770.118 211.622   9
   0  -3 -12 934.353 252.675   7
   0  -3 -12 685.317 354.364  16
   0  -3  12 140.083 241.597  17
   0   3 -12 492.862 171.986  10
   0  -3 -12 482.821 174.932  10
   0   3 -13 142140. 2625.59  10
   0  -3 -13 143704. 2630.07  10
   0  -3 -13 127946. 2136.54  12
   0  -3 -13 130352. 2871.89   7
   0   3 -13 133971. 2079.74   9
   0   3 -14 3152.20 283.669   9
   0  -3 -14 2383.46 424.799   7
   0  -3 -14 2869.45 423.660  10
   0   3 -14 3027.00 435.141  10
   0   3 -15 918.096 145.357   9
   0  -3 -15 507.811 242.758  10
   0   3 -15 478.216 217.504  10
   0   3 -15 433.482 175.828   7
   0  -3 -15 647.477 200.792   7
   0   3 -16 1842.63 169.689   9
   0   3 -16 1603.29 265.745  10
   0  -3 -16 1542.94 278.192  10
   0   3 -16 1888.46 267.101   7
   0  -3 -16 2110.07 286.692   7
   0   3 -17 58433.3 1098.59  10
   0   3 -17 54939.8 737.714   9
   0  -3 -17 57063.6 1243.02  10
   0   3 -17 55210.0 1087.66   7
   0  -3 -17 58260.8 1113.32   7
   0  -3 -18 43.5954 70.5016  10
   0   3 -18-21.7244 52.2122  10
   0  -3 -18-9.35172 66.1283   7
   0   3 -18-100.900 84.7758   7
   0  -4   0 741772. 4071.63   3
   0   4   0 746614. 3800.06   2
   0  -4  -1 17030.2 621.657   3
   0  -4   1 16617.5 615.155   3
   0  -4   1 17840.4 634.262  19
   0   4   1 16257.0 577.761   2
   0  -4   1 17371.3 524.966  17
   0  -4   1 15927.7 294.462  16
   0  -4  -1 16890.4 514.215  16
   0  -4  -2 483801. 3414.11   3
   0  -4   2 504985. 3419.23   3
   0   4  -2 504260. 3004.59  18
   0  -4   2 518249. 3336.88  19
   0   4   2 478509. 3435.55   2
   0  -4   2 514149. 3226.08  17
   0  -4  -2 518596. 3305.21  16
   0  -4   3 63292.2 1204.48   3
   0  -4  -3 64975.0 1240.29   3
   0   4  -3 66412.1 1195.00  18
   0  -4   3 64326.5 1177.57  19
   0   4   3 67930.6 1570.40   2
   0   4   3 64913.3 861.863   1
   0  -4   3 63747.0 1241.83  17
   0  -4  -3 64445.9 1320.15  16
   0  -4  -4 236853. 2433.30   3
   0  -4   4 222424. 2292.60   3
   0   4  -4 228611. 3026.68  18
   0  -4   4 231421. 2598.24  17
   0  -4   4 240401. 2270.19  19
   0   4   4 242274. 3879.76   2
   0   4   4 228023. 1218.50   1
   0  -4  -4 240166. 2866.93  16
   0  -4   5 5830.95 450.734  17
   0   4  -5 6361.25 584.122  18
   0  -4   5 5552.91 356.357  19
   0   4   5 5493.49 779.982   2
   0  -4  -5 6345.82 528.719  16
   0   4  -6 242862. 2913.26   4
   0  -4   6 244402. 3099.42  17
   0   4   6 250955. 3887.27  17
   0  -4  -6 242254. 3583.58  16
   0   4  -7 126825. 3304.26  18
   0  -4   7 119529. 2362.39  17
   0   4  -7 111204. 2015.90   4
   0   4   7 114964. 2953.49   2
   0  -4  -7 121067. 2826.41  16
   0  -4   8 37670.7 1437.89  17
   0   4  -8 39474.9 1225.72   4
   0   4   8 38500.7 1698.12   2
   0  -4  -8 39424.2 1787.36  16
   0  -4  -9 19840.8 1444.96  16
   0   4   9 22948.9 1325.82   2
   0   4  -9 22421.0 1419.50   1
   0  -4   9 18058.9 1085.85  17
   0  -4 -10 64632.7 2897.28  16
   0  -4  10 61382.3 2173.69  17
   0   4  10 65856.1 2302.88   2
   0  -4 -11 5463.77 986.030  16
   0  -4 -11 5131.63 477.896   7
   0  -4 -11 6081.88 545.790  12
   0  -4  11 5788.37 734.634  17
   0  -4 -11 5261.57 426.287  10
   0   4 -11 5696.62 429.704  10
   0   4  11 5055.98 666.677   2
   0   4 -11 5681.91 405.986   9
   0  -4 -12 89373.9 4332.24  16
   0  -4 -12 90228.3 2203.12   7
   0  -4 -12 87744.7 1770.84  12
   0  -4 -12 85104.7 2034.18   6
   0   4 -12 89347.9 1785.61   9
   0  -4 -12 93974.8 1927.79  10
   0   4 -12 93800.3 1903.14  10
   0  -4  12 93469.9 3200.98  17
   0  -4  12 86111.6 3329.17   2
   0   4  12 85734.8 2767.16   2
   0  -4 -13 30.5318 183.361  10
   0   4 -13-1.58783 196.508  10
   0   4 -13 3.27344 167.323   9
   0  -4 -13 94.2020 230.262   6
   0  -4 -13 164.388 200.384   7
   0   4 -14 35316.2 985.595   9
   0  -4 -14 31267.3 1339.89   7
   0   4 -14 35369.9 1434.09  10
   0  -4 -14 35745.2 1406.86  10
   0   4 -15 4864.26 321.385   9
   0  -4 -15 5079.46 476.213   7
   0   4 -15 4548.31 455.557   7
   0  -4 -15 5638.37 608.819  10
   0   4 -15 5646.74 592.279  10
   0   4 -16 51404.6 1228.92   7
   0  -4 -16 54836.8 1247.00   7
   0  -4 -16 53357.9 1465.54  10
   0   4 -16 52981.0 862.590   9
   0   4 -17 1871.55 199.935   7
   0  -4 -17 2058.47 209.336   7
   0   4 -17 2188.95 152.710   9
   0   4 -17 2177.73 181.414  10
   0  -4 -17 1938.46 230.621  10
   0   4 -18 47362.5 645.023   7
   0  -4 -18 48346.5 752.241  10
   0   5   0 10.8740 77.9020   2
   0  -5   0 60.8949 75.8707   3
   0  -5   0 91.5508 46.6028  16
   0  -5   0 131.776 100.747  19
   0  -5   1 125096. 1896.85  19
   0   5   1 110557. 1693.61   2
   0  -5   1 117055. 1878.28   3
   0  -5  -1 122296. 1919.21   3
   0  -5   1 118633. 825.789  16
   0  -5  -1 120927. 1472.33  16
   0  -5   1 118321. 1510.58  17
   0  -5  -1 112619. 1864.78  19
   0  -5  -2 79430.3 1573.62   3
   0  -5   2 80817.3 1534.64   3
   0  -5   2 81517.5 1388.00  17
   0  -5  -2 80216.8 1383.90  16
   0   5  -2 79643.0 1348.17  18
   0  -5  -2 77213.3 1598.47  19
   0   5   3 2745.76 213.697   1
   0   5   3 2725.60 326.497   2
   0  -5   3 2380.59 264.793  19
   0  -5   3 2169.91 268.208   3
   0  -5  -3 2098.52 280.384   3
   0  -5   3 2738.58 282.005  17
   0  -5  -3 2425.93 276.893  16
   0   5  -3 2602.04 263.494  18
   0   5   4 101306. 2296.59   2
   0   5   4 97626.5 1074.46   1
   0  -5   4 97688.9 1722.26   3
   0  -5  -4 101822. 1959.52  16
   0  -5   4 99735.7 1808.80  17
   0   5  -4 100791. 1930.70  18
   0  -5   5 447924. 3541.59  19
   0  -5   5 479313. 4249.84  17
   0   5  -5 449864. 5778.88  18
   0  -5  -5 464283. 4680.62  16
   0   5   5 494377. 6415.92   2
   0  -5   6 6455.22 445.362  19
   0   5   6 7767.41 1016.89   2
   0   5  -6 8052.60 655.863  18
   0  -5  -6 6674.83 545.720  19
   0  -5   6 6757.37 547.651  17
   0  -5  -6 6795.16 630.867  16
   0   5  -7 127670. 2326.95   4
   0  -5   7 126493. 2552.33  17
   0  -5  -7 131086. 2502.37  19
   0  -5  -7 130879. 3037.76  16
   0   5   7 125457. 3971.87   2
   0  -5   8 15418.0 962.337  17
   0  -5  -8 14679.6 1137.14  16
   0   5   8 14408.2 1222.90   2
   0  -5   9 6926.95 705.917  17
   0  -5  -9 8284.50 979.825  16
   0   5   9 8003.98 881.654   2
   0   5  -9 8662.62 986.416   1
   0   5 -10 2196.40 607.414   1
   0   5  10 2296.22 478.601   2
   0   5 -10 2502.26 291.607   5
   0  -5 -10 2566.69 320.249   7
   0  -5 -10 2459.68 265.554  10
   0  -5  10 1610.59 388.273  17
   0  -5 -10 2832.91 658.141  16
   0   5 -10 2500.15 242.672   9
   0  -5 -11 94005.3 4022.75  16
   0   5  11 100273. 3111.08   2
   0   5 -11 98724.4 1991.22   5
   0  -5 -11 93125.9 2064.56   7
   0  -5 -11 93014.3 1743.03  10
   0   5 -11 94008.1 1575.59   9
   0  -5  11 88846.2 2959.03  17
   0  -5 -12 1851.40 344.519   7
   0  -5 -12 2042.96 329.025   6
   0  -5  12 2127.52 542.626   2
   0   5  12 1982.20 444.726   2
   0  -5 -12 1952.36 292.218  10
   0  -5  12 2631.82 542.530  17
   0  -5 -12 1969.44 695.174  16
   0   5 -12 1949.56 279.494   9
   0  -5 -13 76500.7 2177.10   6
   0   5 -13 87504.4 1896.24   9
   0  -5 -13 78509.4 2251.93   7
   0  -5 -13 86848.0 1995.31  10
   0  -5 -14 8549.12 579.463   6
   0  -5 -14 8946.96 697.095  10
   0   5 -14 9826.18 556.851   9
   0  -5 -14 9089.87 693.704   7
   0  -5 -15 1010.46 270.345  10
   0   5 -15 1110.97 162.532   9
   0  -5 -15 1662.91 274.273   7
   0   5 -15 1576.27 275.648   7
   0  -5 -16 6908.76 413.123   7
   0   5 -16 6360.32 407.136   7
   0   5 -16 6813.18 308.320   9
   0  -5 -16 5961.14 445.779  10
   0  -5 -17 46430.5 829.387   7
   0   5 -17 45028.4 797.739   7
   0   5 -17 44945.0 631.175   9
   0  -5 -17 46557.3 903.199  10
   0  -5 -18 522.257 72.1961   7
   0  -6   0 671081. 4980.41  19
   0  -6   0 660818. 2983.64  16
   0  -6   0 661055. 4965.62   3
   0  -6  -1 320.805 144.188   3
   0  -6   1 213.835 129.029   3
   0   6   1 254.905 111.772   2
   0  -6  -1 429.248 90.9224  17
   0  -6   1 283.226 103.854  17
   0  -6  -1 272.938 81.8417  16
   0  -6  -1 1021.01 210.585  19
   0   6  -1 322.663 113.165  18
   0  -6   1 892.885 191.587  19
   0  -6   2 68709.9 1569.72  19
   0   6  -2 64663.6 1370.12  18
   0  -6  -2 68163.9 1659.32  19
   0  -6  -2 63189.6 1298.63  16
   0  -6   2 61165.1 1294.22  17
   0  -6  -2 68091.3 1615.27   3
   0  -6   2 65229.5 1553.81   3
   0   6   2 64152.5 1487.31   2
   0  -6   3 42855.4 1260.83   3
   0  -6  -3 44648.2 1379.06   3
   0  -6   3 45756.3 1274.42  19
   0   6   3 41682.8 1299.56   2
   0   6   3 43940.3 981.400   1
   0  -6  -3 44157.1 1229.48  16
   0  -6   3 45414.7 1199.33  17
   0   6  -3 47962.4 1203.81  18
   0  -6  -3 45627.5 1396.37  19
   0  -6   4 57610.1 1467.03   3
   0  -6   4 60315.7 1447.37  19
   0   6   4 60181.7 1744.70   2
   0  -6  -4 57516.1 1558.12  16
   0  -6  -4 59031.2 1648.05  19
   0   6  -4 58011.2 1512.19  18
   0  -6   4 54374.0 1416.76  17
   0  -6   5 2114.92 280.653  19
   0   6   5 2404.71 418.164   2
   0  -6  -5 2245.10 345.162  16
   0  -6  -5 2748.41 373.589  19
   0  -6   5 2321.46 325.053  17
   0   6  -5 2719.99 460.364  18
   0  -6   6 128769. 2155.66  19
   0  -6  -6 128040. 2846.01  16
   0  -6   6 134623. 2560.87  17
   0  -6  -6 133475. 2674.60  19
   0   6  -7 15146.4 863.914   4
   0   6   7 15682.3 1596.95   2
   0  -6   7 14400.7 918.372  17
   0  -6  -7 14585.0 1060.17  16
   0  -6  -7 14521.5 932.674  19
   0  -6   8 27286.8 1328.48  17
   0   6   8 27075.2 2204.80   2
   0  -6  -8 26602.5 1579.21  16
   0   6  -9 19825.0 1566.74   1
   0   6   9 19467.6 1638.17   2
   0   6  -9 22865.5 761.501   5
   0  -6   9 20127.5 1243.41  17
   0   6  -9 20432.2 624.408   9
   0  -6  -9 21050.9 1575.36  16
   0  -6 -10 64981.3 3107.63  16
   0  -6 -10 64588.7 1569.80   7
   0   6 -10 63038.8 1354.43  13
   0   6 -10 65086.3 1429.94   5
   0  -6  10 63213.8 2350.86  17
   0  -6 -10 64385.4 1305.62  10
   0   6  10 59173.9 2697.02   2
   0   6 -10 61813.9 3081.46   1
   0   6 -10 64885.3 1194.23   9
   0  -6 -11 12864.9 1527.03  16
   0  -6 -11 13746.8 806.013   7
   0   6 -11 14114.4 731.025  13
   0   6 -11 13752.0 737.965   5
   0   6 -11 13535.4 597.118   9
   0  -6 -11 13725.9 663.133  10
   0  -6  11 12701.0 1142.92  17
   0   6  11 14034.5 1284.83   2
   0  -6 -12 153420. 2395.98  10
   0  -6 -12 141813. 2805.79   7
   0   6 -12 151159. 2167.49   9
   0  -6 -12 141143. 2741.20   6
   0  -6 -13 2789.62 362.686  10
   0  -6 -13 2494.66 420.373   7
   0   6 -13 2767.29 354.215   9
   0  -6 -13 2469.05 391.790   6
   0  -6 -14 445.082 182.322  10
   0  -6 -14 742.863 226.545   7
   0   6 -14 928.272 204.319   9
   0  -6 -14 689.603 187.101   6
   0  -6 -15 9717.96 650.973  10
   0  -6 -15 10392.5 551.256   7
   0   6 -15 10289.3 588.037   7
   0   6 -15 11001.5 470.758   9
   0  -6 -15 10402.2 469.787   6
   0   6 -16 29532.6 768.268   7
   0  -6 -16 30506.0 751.196   7
   0   6 -16 30261.1 619.717   9
   0  -6 -16 29409.3 824.561  10
   0  -6 -17 21.0916 70.1446   7
   0   6 -17 90.7907 49.6449   9
   0  -6 -17 22.0222 63.0393  10
   0  -7   0 125.164 108.322   3
   0  -7   0 301.791 149.616  19
   0  -7  -1 220200. 3227.34  19
   0  -7   1 231113. 3184.52  19
   0   7  -1 220039. 2858.04  18
   0  -7   1 219158. 2421.70  17
   0   7   1 224595. 2966.96   2
   0  -7  -1 229319. 3275.58   3
   0  -7  -1 218628. 2170.41  16
   0  -7  -2 19645.4 992.363  19
   0  -7   2 21555.4 976.320  19
   0   7  -2 20349.3 850.287  18
   0  -7   2 20897.2 812.253  17
   0  -7   2 21171.0 983.103   3
   0   7   2 19386.9 905.833   2
   0  -7  -2 20388.4 990.431   3
   0  -7  -2 21170.4 786.066  16
   0   7   3 53726.2 1211.22   1
   0  -7   3 58959.1 1602.44  19
   0   7  -3 55038.3 1425.33  18
   0  -7   3 52332.7 1392.26  17
   0  -7  -3 57350.5 1735.61  19
   0  -7  -3 51945.3 1654.08   3
   0  -7   3 54486.3 1566.88   3
   0   7   3 50596.0 1531.95   2
   0  -7  -3 53986.6 1410.70  16
   0  -7  -4 70442.9 1809.76  16
   0  -7  -4 75478.9 2045.98  19
   0   7  -4 75384.4 1847.37  18
   0  -7   4 73313.5 1760.62  17
   0   7   4 78597.3 2067.77   2
   0  -7   4 78147.6 1828.90  19
   0  -7  -5 167091. 3043.38  16
   0  -7   5 161717. 2803.75  17
   0   7   5 168936. 3429.72   2
   0  -7  -5 167199. 3178.15  19
   0  -7   5 169075. 2702.70  19
   0  -7  -6 6948.44 693.197  16
   0  -7   6 7651.97 658.268  17
   0   7   6 8799.93 923.489   2
   0  -7   6 7226.67 564.011  19
   0  -7  -6 8574.88 746.574  19
   0  -7  -7 64114.7 2288.05  16
   0  -7  -7 65047.8 2142.45  19
   0  -7   7 67223.0 2065.27  17
   0   7  -8 1125.13 156.073  13
   0   7  -8 1079.70 169.309   5
   0  -7  -8 1156.73 345.209  16
   0  -7   8 982.104 274.230  17
   0   7  -8 1037.13 146.457   9
   0   7  -8 674.420 278.015   1
   0  -7   9 963.007 296.234  17
   0  -7  -9 893.276 436.837  16
   0   7  -9 1135.13 172.053  13
   0   7  -9 983.653 167.237   5
   0  -7  -9 702.914 183.044   7
   0  -7   9 1091.47 147.390  20
   0   7  -9 592.070 128.995   9
   0   7  -9 422.358 279.985   1
   0  -7 -10 1859.17 577.557  16
   0  -7  10 1966.11 452.295  17
   0  -7 -10 1847.37 286.252   7
   0   7 -10 1969.88 242.158  13
   0   7 -10 2172.21 239.754   9
   0   7  10 1744.54 543.837   2
   0   7 -10 2282.71 677.726   1
   0   7 -10 1901.00 266.232   5
   0   7 -11 146879. 2295.13  13
   0  -7 -11 150529. 2706.55   7
   0   7 -11 151673. 2386.03   5
   0  -7 -11 151106. 2671.96   6
   0   7 -12 2427.59 269.839  13
   0   7 -12 2638.32 370.788   5
   0  -7 -12 1836.00 340.378   6
   0   7 -12 2056.85 280.059   9
   0  -7 -12 1738.64 347.665   7
   0  -7 -13 44061.8 1657.70   6
   0   7 -13 48314.8 1310.72   9
   0  -7 -13 47088.9 1370.96  10
   0  -7 -14 11536.3 641.798   6
   0   7 -14 12323.7 620.535   9
   0  -7 -14 10995.9 603.173   7
   0  -7 -14 11237.7 704.511  10
   0  -7 -15 3920.64 280.283   6
   0   7 -15 3992.28 275.253   9
   0  -7 -15 3934.81 295.620   7
   0  -7 -15 3683.41 318.609  10
   0  -7 -16 8399.23 329.218   7
   0   7 -16 8554.95 310.985   9
   0   7 -17 19622.7 350.707   9
   0  -8   0 353831. 4418.16  19
   0   8   0 351873. 4106.21  18
   0  -8   1 5485.12 549.039   3
   0  -8  -1 5131.57 556.942   3
   0  -8   1 5327.39 545.045  19
   0  -8  -1 5313.27 553.008  19
   0   8  -1 4615.72 464.722  18
   0  -8  -2 79749.1 2189.21  19
   0  -8   2 82314.7 2084.69  19
   0  -8   2 77347.9 1675.14  17
   0   8  -2 80896.9 1874.95  18
   0   8   2 80408.4 1989.32   2
   0   8   2 77916.1 1738.10   1
   0  -8  -3 27109.3 1307.29  19
   0  -8   3 29061.0 1234.61  19
   0  -8   3 26893.0 1067.23  17
   0   8  -3 27661.1 1116.08  18
   0   8   3 28604.2 1240.90   2
   0  -8  -3 26773.3 1021.89  16
   0  -8  -4 119800. 2820.26  19
   0  -8   4 111956. 2405.94  19
   0   8   4 115924. 2683.04   2
   0  -8  -4 117768. 2386.94  16
   0  -8   4 120670. 2394.78  17
   0  -8  -5 996.718 282.043  16
   0  -8   5 431.949 170.875  17
   0  -8   5 447.048 186.281  19
   0  -8  -5 366.872 182.977  19
   0   8   5 292.732 176.796   2
   0  -8  -6 127159. 3017.95  16
   0  -8  -6 125120. 3097.11  19
   0  -8   6 131608. 2630.61  19
   0  -8   6 127712. 2799.61  17
   0   8   7 13216.9 1290.24   2
   0   8  -7 11830.6 1167.66   1
   0   8  -7 11189.1 457.672  13
   0   8  -7 11323.7 483.937   5
   0  -8  -7 11076.5 982.792  16
   0  -8  -7 11334.5 979.776  19
   0  -8   7 11015.4 447.257  20
   0   8  -7 11820.0 466.387   9
   0  -8   7 10418.8 863.589  17
   0   8  -8 29588.7 2003.49   1
   0   8   8 30737.9 2273.29   2
   0   8  -8 26594.2 737.710  13
   0   8  -8 28812.9 818.057   5
   0  -8  -8 26731.5 1673.96  16
   0  -8   8 26211.4 704.151  20
   0   8  -8 26420.6 721.713   9
   0  -8   8 25325.7 1426.46  17
   0  -8   9 40107.1 1896.36  17
   0  -8  -9 41751.9 2296.32  16
   0  -8  -9 41759.6 1243.28   7
   0   8  -9 42826.8 1069.87   5
   0   8  -9 41871.2 990.796  13
   0  -8   9 40220.3 885.240  20
   0   8  -9 38386.6 905.465   9
   0   8  -9 37666.3 2501.00   1
   0  -8 -10 49629.4 1474.54   7
   0  -8 -10 50809.1 1458.19   6
   0   8 -10 48978.0 1236.77   5
   0   8 -10 49276.2 1184.97  13
   0  -8  10 50274.5 1038.77  20
   0   8 -10 50407.4 1088.60   9
   0   8 -11 30094.1 1051.23   5
   0  -8 -11 30114.7 1212.44   6
   0   8 -11 29730.4 1017.62  13
   0   8 -11 31736.6 920.954   9
   0  -8 -11 29028.2 1220.98   7
   0   8 -12 82609.1 1838.26   5
   0  -8 -12 73141.2 2002.01   6
   0   8 -12 78087.2 1474.20  13
   0  -8 -12 70615.0 1866.63   7
   0   8 -12 78477.0 1532.36   9
   0   8 -13 361.060 152.402   9
   0  -8 -13 262.552 132.741   7
   0  -8 -13 220.727 190.010   6
   0   8 -14 2003.44 246.951   9
   0  -8 -14 2055.91 224.132   7
   0  -8 -14 2211.04 275.163   6
   0   8 -15 4355.00 265.588   9
   0  -8 -15 4671.08 284.621   6
   0  -8 -15 4623.66 255.047   7
   0   8 -16 16166.7 384.395   9
   0  -8 -16 15293.1 325.429   7
   0   9   0 40.8812 145.345   1
   0   9   0 188.993 138.207  18
   0  -9   0-29.5686 122.609  19
   0   9   1 134296. 2641.45   1
   0   9   1 133759. 2843.50  18
   0   9  -1 137933. 2717.60  18
   0  -9   1 130858. 2908.75  19
   0  -9  -1 140621. 3093.39  19
   0   9   2 85189.7 1970.49   1
   0   9  -2 90613.5 2167.50  18
   0  -9  -2 88198.2 2505.58  19
   0  -9   2 85633.7 2319.81  19
   0   9   3 1386.50 293.670   2
   0  -9   3 929.686 245.969  19
   0  -9  -3 944.651 274.297  19
   0  -9   4 26437.5 1270.16  19
   0  -9  -4 25658.5 1419.10  19
   0   9   4 25198.1 1309.73   2
   0   9  -5 118966. 1471.74  13
   0   9  -5 124917. 1524.36   5
   0  -9   5 130424. 2811.33  17
   0  -9   5 125465. 1503.53  20
   0  -9  -5 127015. 3239.19  19
   0  -9   5 124659. 2773.72  19
   0   9  -5 127668. 1503.45   9
   0   9  -5 125081. 3487.30   1
   0   9   6 24050.4 1495.41   2
   0   9  -6 23859.9 674.202  13
   0   9  -6 24162.8 699.726   5
   0  -9   6 25156.1 1310.87  17
   0  -9   6 23211.9 662.234  20
   0  -9   6 23546.8 1206.52  19
   0  -9  -6 24113.6 1468.95  19
   0   9  -6 25704.2 1676.47   1
   0   9  -6 23843.2 666.957   9
   0  -9  -7 73198.0 2552.14  16
   0   9   7 77961.0 3001.22   2
   0   9  -7 76700.7 1241.99  13
   0   9  -7 78244.0 1309.48   5
   0   9  -7 77365.6 1225.52   9
   0  -9   7 74440.6 2392.48  17
   0   9  -7 76294.2 3141.05   1
   0  -9  -7 72227.7 2674.34  19
   0  -9   7 76292.6 1218.48  20
   0   9  -8 568.915 128.089  13
   0   9  -8 475.030 130.200   5
   0   9  -8 156.449 470.399   1
   0   9  -8 522.233 127.797   9
   0  -9  -8 346.166 263.994  16
   0  -9   8 663.441 280.031  17
   0  -9   8 460.177 113.502  20
   0   9  -9 896.548 163.229   9
   0   9  -9 533.340 133.455   5
   0  -9  -9 828.728 191.741   6
   0  -9   9 572.501 121.495  20
   0   9  -9 625.632 142.820  13
   0   9 -10 28830.3 915.346  13
   0   9 -10 27181.0 809.667   9
   0   9 -10 28029.0 941.346   5
   0  -9 -10 27145.6 1077.99   6
   0  -9 -10 28269.2 1154.16   7
   0  -9  10 30039.5 823.075  20
   0   9 -11 99835.9 1830.52  13
   0   9 -11 102515. 1638.16   9
   0  -9 -11 98840.9 2183.71   6
   0   9 -11 101832. 1883.23   5
   0  -9 -11 93532.1 2052.41   7
   0  -9  11 96299.5 1554.31  20
   0   9 -12 2029.70 276.930   9
   0   9 -12 1885.68 308.613   5
   0  -9 -12 1420.96 310.686   6
   0  -9 -12 2065.55 277.058   7
   0   9 -12 1560.50 220.044  13
   0   9 -13 21645.7 831.698   9
   0  -9 -13 22815.3 692.543   7
   0   9 -13 21201.2 555.073  13
   0  -9 -14 7021.82 308.251   7
   0  -9 -14 6447.62 409.912   6
   0   9 -14 6819.40 390.611   9
   0  -9 -15 2976.14 199.440   6
   0   9 -15 2601.87 182.626   9
   0   9  15 2422.18 192.157   5
   0   9 -16 1963.51 115.875   9
   0  10   0 120499. 1534.59   5
   0 -10   0 127470. 3127.46  19
   0 -10   0 126879. 1535.57  20
   0  10   0 128120. 1573.35  13
   0  10   0 124952. 2874.09  18
   0  10   1 25953.8 721.838   5
   0  10  -1 26463.9 716.213   5
   0  10  -1 25160.0 1346.93   1
   0  10   1 24357.5 1199.48   1
   0 -10  -1 27243.2 1481.72  19
   0 -10   1 27166.3 1431.43  19
   0 -10   1 26673.8 710.621  20
   0  10   1 26201.4 715.976  13
   0  10  -1 26490.1 713.636  13
   0  10  -1 27390.9 1311.70  18
   0  10   1 26163.7 1363.41  18
   0  10  -2 28934.2 748.183   5
   0  10   2 27930.3 757.695   5
   0  10  -2 27814.1 1482.76   1
   0 -10   2 28081.0 1438.32  19
   0 -10  -2 27682.9 1519.01  19
   0 -10   2 28014.1 732.788  20
   0  10   2 28446.3 751.075  13
   0  10  -2 28423.2 743.746  13
   0  10   2 26993.4 1438.23  18
   0  10  -3 19681.5 619.749   5
   0  10   3 19052.8 642.398   5
   0  10  -3 18126.5 1256.48   1
   0  10   3 19647.9 628.681  13
   0  10  -3 18695.7 601.816  13
   0 -10  -3 19314.7 1297.84  19
   0 -10   3 18944.1 1166.54  19
   0 -10   3 18838.6 605.827  20
   0  10   4 35470.0 901.855   5
   0  10  -4 36184.2 849.849   5
   0 -10  -4 35712.9 878.615   6
   0  10  -4 36144.2 1877.49   1
   0  10  -4 35925.0 811.212   9
   0 -10  -4 37638.7 1850.03  19
   0 -10   4 37681.1 1633.80  19
   0 -10   4 36047.8 839.389  20
   0  10  -4 34612.5 828.019  13
   0  10   4 34699.8 843.809  13
   0  10  -5 365.912 108.376  13
   0  10  -5 645.940 132.512   5
   0 -10  -5 450.124 127.014   6
   0  10   5 436.641 114.199   5
   0  10  -5 277.380 232.478   1
   0  10  -5 284.200 107.905   9
   0 -10   5 383.140 107.629  20
   0 -10  -5 385.640 234.484  19
   0 -10   5 102.255 197.465  19
   0 -10  -6 122906. 1799.42   6
   0  10  -6 120462. 1610.04   5
   0  10   6 121349. 1798.72   5
   0  10  -6 118279. 3843.28   1
   0  10  -6 124385. 1554.90   9
   0 -10   6 121487. 1577.20  20
   0 -10  -6 116936. 3468.50  19
   0  10  -6 119712. 1578.07  13
   0 -10  -7 322.204 134.996   6
   0  10  -7 316.398 116.649   5
   0  10  -7 107.254 291.457   1
   0  10  -7 223.810 103.955   9
   0  10  -7 347.632 113.006  13
   0 -10   7 489.222 120.873  20
   0  10  -8 20939.6 670.943   9
   0 -10   8 20563.3 665.734  20
   0  10  -8 20460.6 696.396  13
   0  10  -8 22044.1 750.332   5
   0 -10  -8 21089.2 838.532   6
   0  10  -9 44829.3 1003.27   9
   0 -10   9 40573.8 950.435  20
   0  10  -9 43719.3 1058.10  13
   0 -10  -9 42419.8 1259.85   6
   0  10  -9 45688.0 1121.26   5
   0  10 -10 42968.4 1012.70   9
   0 -10  10 40795.2 973.585  20
   0  10 -10 41802.7 1095.92  13
   0  10 -10 41755.7 1124.43   5
   0 -10 -10 40227.1 1297.75   6
   0  10 -11 22547.1 762.131   9
   0 -10  11 23906.6 775.030  20
   0  10 -11 22826.6 858.080  13
   0  10 -11 23003.0 873.996   5
   0 -10 -11 21626.8 1008.18   6
   0  10 -12 55321.1 1235.02   9
   0  10 -12 55593.6 1090.72  13
   0 -10 -12 55127.7 1658.57   6
   0  10 -13 2341.34 283.058   9
   0  10 -13 2375.28 170.325  13
   0  10  13 2797.97 323.432   5
   0 -10 -13 2135.22 286.588   6
   0  10 -14 5581.23 300.530   9
   0 -10 -14 5764.04 332.213   6
   0  10  14 5093.15 309.597   5
   0  10 -15 2835.41 158.204   9
   0 -10 -15 2957.50 162.275   6
   0  11   0 133.383 96.0533   5
   0  11   0 494.756 219.799   1
   0 -11   0 10.3038 95.4942  20
   0  11   0 3.55111 90.3901  13
   0 -11   0-34.8894 190.297  19
   0  11   0 307.308 183.995  18
   0  11  -1 74885.3 1248.59   5
   0  11   1 74902.1 1276.58   5
   0  11  -1 69570.4 2365.00   1
   0 -11  -1 73858.9 1231.11  20
   0 -11   1 66363.1 2390.67  19
   0 -11   1 75322.2 1252.70  20
   0 -11  -1 79611.4 2691.87  19
   0  11  -1 77595.9 1279.21  13
   0  11   1 72741.5 1247.18  13
   0  11   1 72682.9 2398.67  18
   0  11  -2 29715.6 785.911   5
   0  11   2 32465.2 854.655   5
   0  11  -2 29223.8 1603.01   1
   0 -11  -2 30893.5 800.688  20
   0 -11  -2 30348.2 1694.38  19
   0 -11   2 32076.0 820.986  20
   0 -11   2 31084.2 1606.95  19
   0  11   2 29488.6 1592.45  18
   0  11   2 30699.6 812.858  13
   0  11  -2 31154.6 815.593  13
   0  11   3 1119.62 153.193  13
   0  11  -3 1174.92 168.568  13
   0  11  -3 1458.73 185.731   5
   0  11   3 1242.27 181.504   5
   0  11  -3 198.695 191.028   1
   0  11  -3 1139.12 162.431   9
   0 -11   3 1155.84 166.423  20
   0 -11   3 1005.93 320.934  19
   0  11   3 1297.55 421.812  18
   0 -11  -3 383.877 182.805  19
   0  11  -4 44743.5 975.199   5
   0 -11  -4 44939.1 997.652   6
   0  11   4 45211.9 1048.56   5
   0  11   4 43723.6 966.864  13
   0  11  -4 42792.9 959.713  13
   0  11  -4 40654.4 2088.34   1
   0  11  -4 41869.9 898.670   9
   0 -11   4 42368.3 1841.29  19
   0 -11  -4 44235.1 2122.19  19
   0 -11   4 43977.1 968.096  20
   0  11  -5 85006.5 1358.61  13
   0  11  -5 83786.5 1287.45   9
   0 -11   5 83562.5 1337.93  20
   0  11  -5 83086.7 1348.36   5
   0  11   5 85392.6 1476.46   5
   0 -11  -5 80464.0 1403.50   6
   0  11  -6 4503.95 326.360  13
   0  11  -6 4599.79 313.424   9
   0 -11   6 4694.83 326.022  20
   0 -11  -6 4354.58 350.745   6
   0  11  -6 4811.87 338.482   5
   0  11   6 4315.64 355.084   5
   0  11  -7 41601.6 973.885  13
   0  11  -7 40075.4 907.506   9
   0 -11   7 39136.5 924.970  20
   0  11  -7 39328.7 974.361   5
   0 -11  -7 41343.7 1103.80   6
   0  11   7 41124.0 1099.20   5
   0  11  -8 9500.35 484.283  13
   0  11  -8 10307.0 473.568   9
   0 -11   8 9964.54 472.313  20
   0  11  -8 9662.66 499.289   5
   0 -11  -8 9526.30 561.002   6
   0  11   8 10051.8 575.506   5
   0  11  -9 8661.64 476.184  13
   0  11  -9 8851.55 449.643   9
   0 -11   9 8387.69 441.919  20
   0 -11  -9 7768.30 535.071   6
   0  11   9 8246.07 551.250   5
   0  11  -9 8495.68 483.148   5
   0  11 -10 11647.9 573.608  13
   0  11 -10 12636.1 541.300   9
   0 -11  10 12940.0 552.248  20
   0  11  10 11476.1 677.292   5
   0  11 -10 11553.5 583.667   5
   0 -11 -10 12166.3 696.138   6
   0  11 -11 34224.4 1014.50  13
   0  11 -11 35439.7 921.515   9
   0 -11  11 33996.0 912.475  20
   0  11 -11 36009.6 1039.48   5
   0 -11 -11 33582.4 1195.54   6
   0  11 -12-62.1697 139.107   9
   0  11 -12 63.6507 75.8618  13
   0  11  12 98.4943 133.295   5
   0 -11 -12-45.0073 193.942   6
   0  11 -13 25950.3 686.721   9
   0  11  13 24552.6 720.222   5
   0 -11 -13 24763.4 766.273   6
   0  11 -14 16722.2 397.435   9
   0 -11 -14 16885.3 441.180   6
   0  12   0 82369.4 1353.41  13
   0 -12   0 79383.0 1321.54  20
   0  12   0 82200.8 1341.14   5
   0  12   1 151.079 90.0019  13
   0  12  -1 151.598 95.4419  13
   0 -12   1 194.736 91.2323  20
   0 -12  -1 162.798 82.2777  20
   0  12   1 606.009 140.471   5
   0  12  -1 785.908 147.574   5
   0  12  -2 19759.7 665.123  13
   0  12   2 21212.6 690.199  13
   0 -12   2 20988.4 680.685  20
   0 -12  -2 20304.1 664.899  20
   0  12  -2 20289.9 663.864   5
   0  12   2 20674.3 697.061   5
   0  12   3 17704.2 625.762  13
   0  12  -3 16891.6 612.860  13
   0  12  -3 17662.6 573.912   9
   0 -12   3 18186.8 639.947  20
   0  12  -3 16850.9 607.047   5
   0  12   3 17814.0 655.845   5
   0  12  -4 15565.5 587.927  13
   0  12   4 15989.0 592.212  13
   0  12  -4 15567.4 542.588   9
   0 -12   4 15938.6 600.264  20
   0 -12  -4 15903.0 584.521   6
   0  12  -4 15515.2 583.973   5
   0  12   4 16457.7 636.581   5
   0  12  -5 1488.23 197.606  13
   0  12  -5 1511.59 189.384   9
   0 -12   5 1488.12 195.132  20
   0  12   5 1631.40 209.873   5
   0  12  -5 1376.77 189.054   5
   0 -12  -5 1495.51 206.973   6
   0  12  -6 102712. 1521.35  13
   0  12  -6 101843. 1402.82   9
   0  12   6 102209. 1637.52   5
   0  12  -6 106332. 1545.15   5
   0 -12  -6 100805. 1596.98   6
   0  12  -7 22363.2 722.508  13
   0  12  -7 22512.5 671.132   9
   0 -12   7 21666.9 692.743  20
   0  12   7 21830.2 782.182   5
   0 -12  -7 21796.5 776.621   6
   0  12  -7 22089.5 723.072   5
   0  12  -8 1127.16 184.674  13
   0  12  -8 683.027 154.190   9
   0 -12   8 1198.40 186.702  20
   0  12   8 925.584 198.811   5
   0 -12  -8 752.755 174.939   6
   0  12  -8 1258.99 193.490   5
   0  12  -9 33836.5 917.497  13
   0  12  -9 34698.7 845.405   9
   0 -12   9 33179.9 853.416  20
   0  12  -9 33596.2 916.274   5
   0 -12  -9 31678.7 1014.54   6
   0  12   9 34082.4 1031.11   5
   0  12 -10 16693.9 662.223  13
   0  12 -10 16973.3 606.850   9
   0 -12  10 16204.1 607.865  20
   0  12 -10 16659.0 662.391   5
   0  12  10 17093.6 745.021   5
   0 -12 -10 16722.9 769.700   6
   0  12 -11 7228.07 391.015  13
   0  12 -11 7732.39 420.705   9
   0 -12  11 7156.66 402.334  20
   0 -12 -11 7430.43 530.383   6
   0  12 -11 7450.24 450.444   5
   0  12  11 8667.03 535.447   5
   0  12 -12 26033.0 702.558   9
   0  12 -12 26206.3 501.887  13
   0 -12 -12 25400.7 828.954   6
   0  12 -13 371.618 74.7635   9
   0 -12 -13 795.843 113.478   6
   0  13   0 39.7940 86.7547  13
   0 -13   0 30.9947 80.1975  20
   0  13   0 124.443 89.8056   5
   0  13  -1 72940.8 1267.28  13
   0  13   1 74307.2 1272.88  13
   0 -13   1 73413.4 1279.32  20
   0 -13  -1 71068.4 1263.05  20
   0  13  -1 76421.2 1266.65   5
   0  13   1 73019.0 1257.01   5
   0  13   2 19109.5 644.866  13
   0  13  -2 19399.8 654.465  13
   0 -13   2 19643.4 664.159  20
   0 -13  -2 18926.8 656.367  20
   0  13   2 18100.8 635.458   5
   0  13  -2 19489.5 642.504   5
   0  13  -3 3446.17 282.224  13
   0  13   3 3559.66 282.165  13
   0 -13   3 3770.93 302.515  20
   0  13   3 3508.09 287.762   5
   0  13  -3 3508.82 276.431   5
   0  13  -4 28465.3 783.859  13
   0  13   4 28235.9 766.410  13
   0  13  -4 28043.0 700.920   9
   0 -13   4 29061.1 804.998  20
   0  13  -4 28459.7 772.133   5
   0  13   4 28174.0 805.681   5
   0  13  -5 40292.2 931.549  13
   0  13  -5 42418.3 863.775   9
   0 -13   5 42518.4 964.764  20
   0 -13  -5 40425.1 907.405   6
   0  13  -5 40777.2 924.331   5
   0  13   5 39995.8 966.284   5
   0  13  -6 165.123 119.626  13
   0  13  -6 183.259 90.6361   9
   0 -13   6 191.831 104.404  20
   0  13   6 68.0976 97.0118   5
   0 -13  -6 193.329 115.833   6
   0  13  -6 200.936 109.649   5
   0  13  -7 41338.0 944.286  13
   0  13  -7 38100.8 834.688   9
   0 -13   7 40107.5 919.240  20
   0 -13  -7 38998.5 960.418   6
   0  13  -7 40181.8 933.785   5
   0  13   7 40355.2 991.640   5
   0  13  -8 16982.7 617.703  13
   0  13  -8 16560.6 561.527   9
   0 -13   8 17133.5 601.367  20
   0  13   8 18027.8 672.442   5
   0  13  -8 17109.5 614.261   5
   0 -13  -8 17823.2 679.772   6
   0  13  -9 3027.88 274.950  13
   0  13  -9 3143.13 255.101   9
   0 -13   9 2975.02 259.093  20
   0 -13  -9 3256.06 309.448   6
   0  13  -9 2985.02 266.499   5
   0  13   9 3544.47 308.367   5
   0  13 -10 4285.29 318.660  13
   0  13 -10 4416.29 299.265   9
   0 -13  10 4164.73 300.678  20
   0 -13 -10 3970.90 345.180   6
   0  13  10 5443.71 366.605   5
   0  13 -10 4535.40 321.592   5
   0  13 -11 21752.0 486.660  13
   0  13 -11 22809.7 605.130   9
   0 -13  11 22007.3 502.149  20
   0  13 -12 124.707 50.9390   9
   0 -13 -12 46.0495 55.7890   6
   0  14   0 55935.4 1059.43  13
   0 -14   0 56228.6 1108.69  20
   0  14   0 58765.8 1057.04   5
   0  14  -1 999.503 161.617  13
   0  14   1 1314.79 174.551  13
   0 -14   1 1132.18 175.151  20
   0 -14  -1 926.761 155.090  20
   0  14   1 1043.12 155.055   5
   0  14  -1 1166.29 169.766   5
   0  14  -2 5308.99 331.736  13
   0  14   2 4988.62 317.041  13
   0 -14   2 5246.35 339.884  20
   0  14   2 4931.92 315.520   5
   0  14  -2 4904.14 309.937   5
   0  14   3 22906.0 659.948  13
   0  14  -3 25986.1 722.008  13
   0 -14   3 25077.5 729.641  20
   0  14  -3 25605.9 692.604   5
   0  14   3 23020.4 669.929   5
   0  14   4 21862.8 633.450  13
   0  14  -4 21353.9 653.019  13
   0 -14   4 20869.7 661.777  20
   0  14   4 21655.1 649.389   5
   0  14  -4 21583.9 635.078   5
   0  14  -5 9478.05 435.442  13
   0 -14   5 9531.33 446.736  20
   0  14   5 8918.59 420.897   5
   0  14  -5 8873.83 411.052   5
   0  14  -6 45708.7 944.966  13
   0  14  -6 43792.7 823.127   9
   0 -14   6 45405.5 953.674  20
   0 -14  -6 43712.2 862.568   6
   0  14   6 45012.4 930.352   5
   0  14  -6 42758.0 891.781   5
   0 -14  -7 16262.9 550.715   6
   0  14  -7 16339.6 573.062  13
   0  14  -7 15877.7 503.938   9
   0 -14   7 16858.5 580.433  20
   0  14   7 16407.2 562.273   5
   0  14  -7 15949.3 547.830   5
   0 -14  -8 11878.9 489.095   6
   0  14  -8 12189.6 498.487  13
   0  14  -8 12314.8 448.594   9
   0 -14   8 12265.2 497.233  20
   0  14   8 13192.9 495.836   5
   0  14  -8 12414.9 483.211   5
   0 -14  -9 15353.5 564.884   6
   0  14  -9 14431.7 537.031  13
   0  14  -9 15262.7 495.564   9
   0  14  -9 15535.3 530.149   5
   0 -14   9 14226.2 519.971  20
   0  14 -10 16307.4 408.496  13
   0 -14  10 16414.1 438.985  20
   0  15   0 0.85979 89.4988  13
   0  15   0 57.7228 73.2472   5
   0 -15   0 17.6496 94.2291  20
   0  15   1 24644.8 643.245  13
   0  15  -1 25401.0 663.275  13
   0  15  -1 24904.8 623.654   5
   0  15   1 25407.3 628.575   5
   0 -15  -1 24960.8 726.789  20
   0 -15   1 26311.0 725.554  20
   0  15   2 19066.3 559.395  13
   0  15  -2 19407.6 580.806  13
   0  15   2 18515.1 535.404   5
   0  15  -2 19022.3 543.382   5
   0 -15   2 19183.5 612.664  20
   0  15  -3 4780.44 292.390  13
   0  15   3 4732.27 281.530  13
   0  15  -3 4680.19 275.511   5
   0  15   3 4375.50 263.681   5
   0 -15   3 5424.93 330.285  20
   0  15  -4 31220.4 729.039  13
   0  15  -4 31853.8 698.177   5
   0  15   4 31118.6 677.164   5
   0 -15   4 30556.0 759.450  20
   0  15  -5 16596.1 533.276  13
   0  15   5 16293.4 485.388   5
   0  15  -5 16164.3 497.372   5
   0 -15   5 16746.7 558.726  20
   0  15  -6 1880.47 188.248  13
   0  15   6 2001.35 170.700   5
   0  15  -6 2042.13 184.219   5
   0 -15   6 2058.67 206.124  20
   0  15  -7 12998.2 471.821  13
   0  15  -7 13325.1 439.460   5
   0 -15   7 12102.5 466.800  20
   0  15  -8 13311.5 463.779  13
   0  15  -8 13468.2 419.597   5
   0 -15   8 12658.9 454.952  20
   0  16   0 7731.45 329.043  13
   0  16   0 7901.52 296.057   5
   0 -16   0 7351.05 366.039  20
   0  16   1 5272.82 268.759  13
   0  16  -1 5066.74 270.323  13
   0  16   1 5105.40 236.725   5
   0  16  -1 5224.42 244.270   5
   0 -16   1 4864.29 302.216  20
   0  16   2 204.116 73.6580  13
   0  16  -2 200.269 75.5190  13
   0  16   2 182.939 64.4734   5
   0  16  -2 185.727 71.0832   5
   0 -16   2 145.110 86.0893  20
   0  16  -3 12756.1 424.922  13
   0  16  -3 12077.3 364.050   5
   0 -16   3 12368.5 466.946  20
   0  16  -4 19080.7 517.969  13
   0  16  -4 18791.9 444.615   5
   0 -16   4 18387.7 554.087  20
   0 -16   5 1747.20 174.014  20
   0  16  -5 1747.02 163.909  13
   0 -16   6 14447.4 453.736  20
   0  16  -6 14849.2 437.984  13
   1   0 -19 5626.05 210.138  10
   1   0 -19 5810.19 216.345   7
   1   0 -18-33.5233 85.0473  10
   1   0 -18 15.9938 76.6503   7
   1   0 -17 13122.8 591.789  10
   1   0 -17 12932.5 539.079   7
   1   0 -16 11.1497 65.3437   9
   1   0 -16-55.2636 181.871  10
   1   0 -16 6.32131 119.983   7
   1   0 -15 78596.5 1127.22   9
   1   0 -15 76436.8 1726.53   7
   1   0 -14 117.435 92.9586   9
   1   0 -14-58.2309 276.909  10
   1   0 -14 136.886 181.945   7
   1   0 -13 70460.2 1479.35  12
   1   0 -13 71320.8 1151.89   9
   1   0 -13 74019.5 2119.46  10
  -1   0  13 68914.6 2616.73   2
   1   0 -13 70258.1 4088.86  16
  -1   0  13 71292.8 2884.70  17
   1   0 -12 160.343 139.601  12
   1   0 -12-107.971 232.671  10
   1   0 -12 89.6877 100.485   9
  -1   0  12 120.080 174.124   2
   1   0 -11 127648. 4663.76  16
  -1   0  11 118475. 3868.25  17
  -1   0  11 123592. 3666.75   2
   1   0 -10 343.089 272.071  16
  -1   0  10 97.3734 191.860  17
  -1   0  10-88.7728 215.123   2
   1   0  -9 299754. 5372.75  16
  -1   0   9 290914. 4725.66  17
  -1   0   9 287227. 5463.33   2
   1   0  -8 379.611 210.527  16
  -1   0   8 62.1301 125.464  17
   1   0  -8 97.2362 80.8699   4
  -1   0   8-14.5704 178.017   2
   1   0  -7 32389.5 1358.33  16
   1   0  -7 31082.1 905.199   4
  -1   0   7 33478.6 1254.18  17
  -1   0   7 32606.1 1482.77   2
   1   0  -6-27.3676 139.557  16
  -1   0   6 119.052 107.849  17
   1   0  -6 84.4459 74.0384   4
   1   0  -6 339.565 181.288  18
  -1   0   6 87.2943 145.650   2
   1   0  -5 6514.09 472.111  16
   1   0  -5 5467.67 309.004   4
   1   0  -5 6356.89 212.351   3
  -1   0   5 6817.48 460.405  17
   1   0  -5 6265.80 551.855  18
  -1   0   5 5754.33 495.702   2
   1   0  -4 332.289 123.465  16
   1   0  -4 209.417 64.3619   4
   1   0  -4-36.4668 123.233  18
  -1   0   4 57.6794 122.984   2
   1   0  -3 480830. 2156.22   4
  -1   0   3 489889. 3208.51  17
  -1   0   2 98.2440 109.991  19
  -1   0   2 114.339 81.3810  17
  -1   0   2 175.320 115.804   2
  -1   0   1 168580. 2181.35  19
  -1   0   1 166041. 1832.26   2
  -1   0   1 169770. 1956.96   1
  -1   0   0 47.4346 36.1047   4
   1   0   0 138.148 32.0222  18
  -1   0   0 81.0186 111.946  19
  -1   0   0 40.2079 33.9915   1
  -1   0   0 63.4716 19.3894   2
  -1   0  -1 271146. 3370.31  19
  -1   0  -1 274497. 1334.82   1
  -1   0  -2 107.114 69.4073   4
   1   0   2 100.756 29.6948   3
  -1   0  -2 24.8708 37.2776  16
  -1   0  -2 117.430 43.2726   1
  -1   0  -3 209785. 2167.86   4
   1   0   3 208390. 969.396   3
   1   0   3 204913. 1684.78  17
  -1   0  -3 217844. 1850.59  16
  -1   0  -3 221386. 1404.49   1
  -1   0  -4-54.1576 88.7037   4
   1   0   4 123.949 23.5065   3
  -1   0  -4 24.3940 60.4510  16
   1   0   4 33.0478 57.1396  17
  -1   0  -4 81.3469 46.2623   1
   1   0   5 7583.32 409.409  17
  -1   0  -5 7709.76 484.628   4
  -1   0  -5 7555.65 462.127  16
  -1   0  -5 7871.18 334.357   1
  -1   0  -6 59.8984 81.1043   4
  -1   0  -6 44.5694 100.923  16
   1   0   6-16.2473 66.7805  17
  -1   0  -6 99.3913 71.0131   1
   1   0   7 146328. 2242.61  17
  -1   0  -7 160616. 2454.70   4
  -1   0  -7 151930. 2581.90  16
  -1   0  -7 156542. 1910.83   1
  -1   0  -8-144.573 111.014   4
  -1   0  -8-59.0748 123.501  16
   1   0   8 3.47874 85.0054  17
   1   0   8 211.033 177.638   2
   1   0   9 381839. 4447.15  17
   1   0   9 382334. 5879.57   2
  -1   0  -9 392652. 5278.32  16
   1   0  10-295.110 251.202   2
  -1   0 -10 182.391 120.214   4
   1   0  10-38.0977 172.936  17
  -1   0 -10-314.321 218.787  16
  -1   0 -11 12969.5 606.943  10
   1   0  11 10957.9 1271.02   2
   1   0  11 11619.7 975.664  17
  -1   0 -11 12080.1 1208.15  16
  -1   0 -12 52.3730 146.610   7
  -1   0 -12-68.3311 188.392  12
  -1   0 -12 110.128 111.693  10
   1   0  12-128.735 208.462   2
   1   0  12 216.148 229.386  17
  -1   0 -12 190.783 286.719  16
  -1   0 -12-26.5739 97.7014  15
  -1   0 -13 50380.2 1226.31  12
   1   0  13 51187.2 2501.79   2
  -1   0 -13 48818.2 1417.36  10
  -1   0 -13 46100.8 3068.11  16
  -1   0 -13 45830.1 998.769  15
  -1   0 -13 45683.6 1539.16   7
  -1   0 -14-25.0721 240.893   7
  -1   0 -14-64.7158 215.580  12
  -1   0 -14 163.374 169.507  10
  -1   0 -15 65205.5 2078.85   7
  -1   0 -15 68299.8 1501.25  12
  -1   0 -16-114.689 274.633  10
  -1   0 -16-127.393 224.393   7
  -1   0 -17 11115.6 639.878  10
  -1   0 -17 10384.1 552.807   7
  -1   0 -18 21.4091 84.3267  10
  -1   0 -18 82.6821 91.3647   7
  -1   0 -19 24981.1 436.642  10
   1  -1 -19 65.5621 41.3862  10
   1   1 -19 68.1521 40.9601   7
   1  -1 -19 124.491 48.9714   7
   1  -1 -18 349.988 90.1518  10
   1   1 -18 289.908 84.9233  10
   1  -1 -18 414.188 92.8575   7
   1   1 -18 429.841 85.6845   7
   1  -1 -17 2891.90 287.961  10
   1   1 -17 2951.55 183.167   9
   1   1 -17 3076.75 285.061  10
   1   1 -17 3240.61 276.023   7
   1  -1 -17 3113.82 275.258   7
   1   1 -16 57876.9 1508.31  10
   1   1 -16 54221.2 877.127   9
   1  -1 -16 58704.1 1543.55  10
   1  -1 -16 57175.1 1314.55   7
   1   1 -16 56981.3 1310.77   7
   1  -1 -15 3451.46 479.874  10
   1  -1 -15 3498.39 246.386   9
   1   1 -15 3452.72 476.420  10
   1   1 -15 3475.96 247.580   9
   1   1 -15 3691.05 392.135   7
   1  -1 -15 3562.66 389.923   7
   1  -1 -14 124878. 3009.88  10
   1  -1 -14 116798. 1432.95   9
   1   1 -14 127045. 3070.64  10
   1   1 -14 117890. 1484.62   9
   1  -1 -14 117254. 2352.21   7
  -1   1  13 1453.32 368.460   2
  -1  -1  13 1696.94 442.981   2
   1  -1 -13 1488.51 299.141  12
   1  -1 -13 2077.17 804.240  16
  -1  -1  13 152.214 275.973  17
   1  -1 -13 1693.18 187.222   9
   1  -1 -13 1586.31 324.873  10
   1   1 -13 1343.60 296.935  10
   1  -1 -13 1505.35 319.424   7
   1   1 -13 1826.55 200.186   9
   1  -1 -12 1961.48 292.958  12
   1  -1 -12 1177.21 503.169  16
  -1   1  12 1983.82 471.438  17
  -1  -1  12 1233.34 469.706  17
   1   1 -12 1597.74 198.434   9
  -1   1  12 1770.80 388.458   2
  -1  -1  12 1793.99 502.648   2
   1  -1 -12 1960.65 340.280  10
   1   1 -12 1895.00 327.304  10
   1  -1 -12 1796.05 187.437   9
  -1   1  11 7657.36 838.937   2
  -1  -1  11 6915.30 1011.03   2
   1  -1 -11 7033.09 540.176  10
  -1   1  11 7134.83 880.570  17
  -1  -1  11 8015.03 970.488  17
   1   1 -11 6794.54 1069.06  16
   1  -1 -11 6662.18 1101.21  16
  -1  -1  10 258317. 4724.33  17
  -1   1  10 249303. 5430.82  17
   1   1 -10 247035. 5487.57  16
   1  -1 -10 230582. 5670.84  16
  -1  -1  10 248070. 5262.69   2
  -1   1  10 238999. 4577.33   2
  -1  -1   9 372.587 177.671  17
   1   1  -9 1216.67 344.535  16
   1  -1  -9 823.046 349.912  16
  -1   1   9 28.5196 159.229  17
  -1  -1   9 611.645 262.175   2
  -1   1   9 518.331 236.227   2
   1   1  -8 81510.1 1481.64   4
  -1   1   8 78876.2 2408.81  17
  -1  -1   8 81957.1 2119.88  17
   1   1  -8 88020.8 2412.10  16
   1  -1  -8 84292.4 2603.63  16
  -1  -1   8 85272.8 2406.10   2
  -1   1   8 92469.3 2771.64   2
   1   1  -7 1184.93 170.536   4
   1   1  -7 1230.15 321.445  18
   1  -1  -7 1092.91 266.982  16
   1   1  -7 886.223 215.383  16
  -1  -1   7 1037.07 218.442  17
  -1   1   7 944.955 247.729  17
  -1   1   7 1326.23 343.074   2
   1   1  -6 10137.3 437.355   4
  -1   1   6 12198.7 985.793   2
   1   1  -6 11876.8 948.351  18
  -1  -1   6 12502.7 662.973  17
  -1   1   6 11219.6 742.625  17
   1  -1  -6 11228.2 742.689  16
   1   1  -6 11066.2 656.470  16
   1   1  -5 1100.39 129.648   4
  -1   1   5 1460.20 338.244   2
  -1  -1   5 1014.69 179.479  17
   1   1  -5 1289.08 336.190  18
  -1   1   5 1296.27 248.676  17
   1  -1  -5 1040.02 206.229  16
   1   1  -5 917.566 179.238  16
  -1  -1   5 1793.45 231.286  19
   1  -1  -4 469308. 1821.81   3
  -1   1   4 469568. 4208.51  17
  -1  -1   4 476443. 4274.06  19
   1  -1  -3 58794.6 696.086   3
   1   1  -3 59758.8 671.747   4
  -1   1   3 56673.3 1569.86  17
   1   1  -3 61010.2 1486.82  18
  -1  -1   3 58165.0 1106.68  19
   1  -1  -2 663724. 2368.92   3
   1   1  -2 645277. 4254.28  18
  -1  -1   2 631854. 2992.23  17
  -1  -1   2 664535. 2903.20  19
  -1   1   1 14770.7 306.294   1
  -1  -1   1 14163.5 418.107  17
   1  -1  -1 14255.0 375.778  18
  -1   1   1 15819.9 437.933  17
  -1  -1   1 12552.8 343.276  19
   1  -1  -1 13903.0 334.614   3
  -1  -1   0 1207.95 147.372   4
  -1   1   0 899.578 82.3935   1
  -1  -1   0 922.989 86.1781  19
  -1  -1   0 1096.32 75.8939  16
  -1   1  -1 840.712 89.7664   1
  -1  -1  -1 852.872 132.739   1
   1   1   1 880.085 195.050   2
   1  -1   1 701.647 77.8357   3
  -1  -1  -1 919.128 139.598   4
  -1  -1  -1 789.136 84.1380  16
  -1  -1  -1 956.047 82.6666  19
  -1  -1  -2 484691. 4440.61   1
  -1  -1  -3 129096. 1893.31   1
  -1   1  -3 129933. 1304.49   1
  -1  -1  -3 126283. 1477.94  16
   1  -1   3 126443. 1422.80  17
   1   1   3 130321. 1175.63  17
  -1   1  -3 125633. 1350.15  16
  -1  -1  -3 124285. 889.931  19
   1  -1   3 127698. 659.310  19
   1  -1   3 121695. 976.399   3
  -1  -1  -3 126869. 1780.18   4
  -1   1  -3 124483. 1714.31   4
  -1   1  -4 574042. 3873.96   4
  -1  -1  -4 603926. 4156.32   4
  -1   1  -4 602516. 3124.92   1
  -1  -1  -4 593974. 1947.31  19
   1   1   4 597752. 3024.92  17
   1  -1   4 599101. 3533.32  17
  -1   1  -4 602249. 3417.18  16
  -1  -1  -4 608383. 3728.18  16
  -1  -1  -5 1130.71 204.885   4
  -1   1  -5 1146.62 200.578   4
   1  -1   5 727.539 75.3120   3
  -1  -1  -5 1026.46 126.527   1
  -1   1  -5 1139.30 152.530   1
   1   1   5 1283.00 272.964   2
  -1  -1  -5 1101.30 81.7114  19
   1  -1   5 1524.76 202.383  17
  -1  -1  -5 792.435 172.492  16
  -1   1  -5 894.189 160.796  16
   1   1   5 934.044 147.182  17
   1   1   6 4299.89 343.075  17
   1  -1   6 4014.93 348.495  17
  -1   1  -6 4597.75 392.969  16
  -1  -1  -6 4289.98 409.547  16
   1   1   6 5151.75 573.379   2
  -1   1  -6 4451.38 321.580   1
  -1  -1  -6 4752.69 422.924   4
  -1   1  -6 4863.14 404.690   4
   1  -1   7 17936.6 805.537  17
   1   1   7 20050.8 815.857  17
  -1  -1  -7 18773.1 951.138  16
  -1   1  -7 18404.8 874.880  16
  -1   1  -7 18707.1 726.173   1
   1   1   7 19500.3 1224.34   2
  -1   1  -7 19935.9 863.079   4
  -1  -1  -7 20207.8 927.730   4
   1  -1   8 126115. 2341.03  17
   1   1   8 126324. 2322.85  17
  -1   1  -8 121806. 2541.97  16
  -1  -1  -8 126834. 2753.52  16
   1   1   8 130488. 3468.98   2
  -1   1  -8 126982. 2299.55   4
  -1  -1  -8 124249. 2441.92   4
   1  -1   9 1457.75 289.395  17
   1   1   9 1176.56 276.614  17
  -1  -1  -9 1295.04 342.632  16
  -1   1  -9 1230.42 317.942  16
   1   1   9 1531.96 454.464   2
  -1  -1  -9 1064.96 248.624   4
  -1   1  -9 1454.69 274.170   4
   1   1  10 27103.9 1395.62  17
   1  -1  10 25718.2 1284.91  17
  -1   1 -10 26861.4 1199.43   4
  -1  -1 -10 28403.7 1330.11   4
  -1  -1 -10 28103.9 1645.92  16
  -1   1 -10 28291.0 1590.25  16
   1  -1  10 27006.4 1628.79   2
   1   1  10 30373.7 2003.38   2
   1  -1  11 439.329 333.027   2
   1   1  11 600.188 269.486   2
  -1  -1 -11 516.883 126.630  10
  -1   1 -11 769.800 157.065  10
   1   1  11 562.272 302.318  17
  -1   1 -11 906.406 343.558  16
  -1  -1 -11 661.871 344.412  16
   1  -1  11 834.766 286.502  17
  -1  -1 -11 463.864 142.562   7
  -1  -1 -12 46563.3 1424.23   7
   1   1  12 47673.3 2298.04   2
   1  -1  12 44004.4 2611.04   2
  -1   1 -12 47430.7 1078.33  12
  -1  -1 -12 47392.9 1190.97  12
   1  -1  12 43853.5 2093.96  17
  -1  -1 -12 46555.3 1268.62  10
  -1   1 -12 47258.3 1278.89  10
  -1   1 -12 45613.7 1087.97   9
  -1  -1 -12 45722.3 2704.68  16
  -1   1 -12 47176.9 2687.15  16
  -1  -1 -12 47233.5 1005.88  15
   1   1  13 1132.79 342.661   2
   1  -1  13 1405.42 469.286   2
  -1  -1 -13 1153.85 215.901  12
  -1   1 -13 715.463 149.006  12
  -1   1 -13 917.917 155.708   9
   1  -1  13 1854.68 520.533  17
  -1  -1 -13 890.673 467.966  16
  -1  -1 -13 1052.92 263.874   7
  -1   1 -13 704.716 216.654   7
  -1   1 -13 1136.18 240.831  10
  -1  -1 -13 1079.87 224.344  10
  -1  -1 -14 145078. 2659.58  10
  -1   1 -14 135160. 1566.18   9
  -1   1 -14 144972. 2665.46  10
  -1   1 -14 128688. 2749.36   7
  -1  -1 -14 136147. 2855.59   7
  -1   1 -14 139477. 2003.62  12
  -1  -1 -14 141455. 2229.80  12
  -1  -1 -15 937.383 261.012  10
  -1   1 -15 921.803 268.060  10
  -1   1 -15 1030.07 318.011   7
  -1  -1 -15 946.709 319.737   7
  -1   1 -15 994.344 222.659  12
  -1  -1 -16 43008.3 1627.11  10
  -1   1 -16 45242.6 1697.36  10
  -1  -1 -16 38032.3 1305.04   7
  -1   1 -16 36555.2 1283.23   7
  -1   1 -16 38942.4 988.198  12
  -1   1 -17 411.861 150.793  10
  -1  -1 -17 346.443 152.391  10
  -1   1 -17 321.252 147.917   7
  -1  -1 -17 444.736 142.769   7
  -1   1 -18 7284.21 356.648  10
  -1  -1 -18 7754.50 386.483  10
  -1  -1 -18 7346.07 352.984   7
  -1   1 -18 7705.77 353.998   7
  -1  -1 -19 1483.01 112.346  10
   1  -2 -19 15927.2 341.382  10
   1  -2 -19 16090.5 324.791   7
   1   2 -18 201.881 68.6407  10
   1  -2 -18 106.892 68.5738  10
   1   2 -18 188.414 72.6409   7
   1  -2 -18 232.400 75.9819   7
   1   2 -17 12298.0 367.623   9
   1   2 -17 12477.1 532.146  10
   1  -2 -17 12092.7 560.835  10
   1  -2 -17 12246.1 505.857   7
   1   2 -17 12404.1 513.454   7
   1   2 -16 1236.71 149.327   9
   1   2 -16 1044.70 209.227  10
   1  -2 -16 1043.39 227.292  10
   1   2 -16 1160.88 213.902   7
   1  -2 -16 1303.35 229.245   7
   1   2 -15 85548.8 1224.23   9
   1  -2 -15 87273.4 2226.89  10
   1   2 -15 87103.5 1788.12   7
   1  -2 -15 85658.9 1804.75   7
   1   2 -14 4080.87 299.516   9
   1   2 -14 4393.74 598.417  10
   1  -2 -14 3728.57 548.367  10
   1  -2 -14 3858.29 443.807   7
   1  -2 -13 28277.2 2774.56  16
   1  -2 -13 27175.4 1247.61   7
   1  -2 -13 28619.8 979.199  12
   1   2 -13 31187.5 866.622   9
   1   2 -13 33296.6 1422.92  10
   1  -2 -13 31500.9 1383.62  10
   1  -2 -13 32001.8 775.301   9
  -1   2  13 32013.2 1637.25   2
  -1  -2  13 32598.9 2070.15   2
  -1  -2  13 29770.7 2258.27  17
   1  -2 -12 18990.7 1131.37   7
  -1  -2  12 20253.8 1652.93  17
   1  -2 -12 20059.7 866.435  12
  -1  -2  12 19636.8 1778.24   2
  -1   2  12 20429.8 1298.34   2
   1  -2 -12 20252.8 2224.30  16
   1   2 -12 21749.1 793.546   9
   1  -2 -12 21357.6 631.540   9
   1  -2 -12 22359.2 1059.65  10
   1   2 -12 23018.4 1067.03  10
   1   2 -11 87633.6 1860.06  10
   1  -2 -11 85084.6 1849.84  10
  -1  -2  11 82387.4 2934.25  17
  -1   2  11 88417.4 2594.07  17
   1   2 -11 84358.4 1702.72   9
  -1   2  11 78691.2 2514.06   2
  -1  -2  11 83797.3 3230.44   2
   1  -2 -11 80460.8 3888.79  16
  -1  -2  10 523.521 279.346   2
  -1   2  10 725.416 246.216   2
   1   2 -10 387.435 263.045  16
  -1  -2  10 529.065 227.601  17
  -1   2  10 719.933 294.782  17
   1  -2 -10 761.461 381.803  16
  -1   2   9 263535. 4502.09  17
  -1  -2   9 245130. 3989.69  17
  -1   2   9 246606. 4174.19   2
  -1  -2   9 256210. 4456.48   2
   1  -2  -9 241693. 5229.61  16
   1   2  -9 252533. 4518.22  16
  -1   2   8 9011.96 830.619  17
   1   2  -8 9424.87 1029.58  18
  -1  -2   8 8957.52 688.660  17
  -1   2   8 9757.91 796.214   2
   1  -2  -8 9785.61 940.834  16
   1   2  -8 9713.52 762.002  16
  -1   2   7 77736.8 2139.97   2
   1   2  -7 78782.5 1289.23   4
  -1  -2   7 75573.5 1804.40  17
  -1   2   7 79457.8 2366.79  17
   1   2  -7 72448.6 2444.85  18
   1   2  -7 75092.0 1813.40  16
   1  -2  -7 76200.5 2295.48  16
  -1   2   6 3579.22 453.732   2
  -1  -2   6 3800.32 402.069  19
   1   2  -6 3975.21 273.661   4
  -1  -2   6 3368.36 348.450  17
  -1   2   6 3660.51 486.518  17
   1   2  -6 3828.96 473.783  18
   1   2  -6 3493.39 341.057  16
   1  -2  -6 3086.63 432.961  16
  -1   2   5 142419. 2567.81   2
  -1  -2   5 133367. 2046.01  19
   1  -2  -5 124782. 1187.77   3
   1   2  -5 137351. 1477.63   4
  -1  -2   5 138218. 2010.43  17
  -1   2   5 134075. 2550.84  17
   1   2  -5 138752. 2443.13  18
   1  -2  -5 143601. 2529.53  16
   1   2  -5 134442. 1772.25  16
  -1   2   4 1541.42 280.142   2
  -1  -2   4 1262.46 164.275  19
   1   2  -4 1479.95 146.211   4
   1  -2  -4 1324.66 134.128   3
  -1  -2   4 1114.85 181.093  17
   1   2  -4 1472.45 269.365  18
  -1   2   4 1056.43 221.131  17
   1   2  -4 1334.36 148.056  16
  -1   2   3 40336.2 587.666   1
  -1  -2   3 38124.6 768.795  19
   1  -2  -3 37288.4 680.459   3
   1   2  -3 37196.0 1135.07  18
  -1   2   3 41241.3 1379.00  17
  -1  -2   3 37730.1 857.855  17
   1   2  -3 36234.1 620.009  16
  -1  -2   2 63741.0 924.494  19
   1  -2  -2 58198.5 846.150   3
  -1   2   2 61174.7 672.953   1
  -1  -2   2 63209.5 956.672  17
  -1   2   2 59377.1 1046.05  17
   1   2  -2 58690.1 982.827  18
  -1  -2   1 150090. 1367.11  19
  -1   2   1 152712. 1164.12   1
  -1  -2   1 155647. 1292.90  17
   1   2  -1 146725. 1333.10  18
   1  -2  -1 150454. 1343.86   3
   1   2   0 177121. 992.197   2
  -1  -2   0 175191. 980.740  16
  -1  -2  -1 175874. 1437.07  19
   1  -2   1 175677. 1457.00   3
  -1  -2  -1 175980. 1302.78  16
   1   2   1 171479. 1211.62   2
   1   2   2 113783. 1903.24   2
  -1  -2  -2 119659. 1198.82  19
   1   2   2 121181. 788.244  17
  -1   2  -2 111160. 1009.93  18
  -1  -2  -2 113092. 1268.75  16
   1  -2   2 109813. 1172.01   3
  -1   2  -3 666684. 2978.92  16
  -1  -2  -3 657646. 3561.43  16
  -1   2  -3 661792. 3589.49  18
   1   2   4 351.129 258.962   2
   1  -2   4 479.750 68.3234  19
  -1   2  -4 348.776 127.064   4
  -1  -2  -4 325.032 149.582   4
   1  -2   4 463.974 85.2894   3
  -1  -2  -4 502.702 88.5599  19
  -1   2  -4 493.276 94.1696  18
   1   2   4 427.038 91.5312  17
  -1  -2  -4 492.693 139.733  16
  -1   2  -4 413.223 99.7142  16
   1  -2   4 467.388 117.571  17
  -1   2  -5 8052.91 454.433   1
   1  -2   5 7339.03 285.755  19
  -1  -2  -5 8156.55 337.783  19
  -1   2  -5 7925.84 508.071   4
   1  -2   5 7656.67 319.288   3
   1   2   5 7075.32 387.927  17
  -1   2  -5 8074.74 390.392  18
   1  -2   5 7447.84 467.297  17
  -1  -2  -5 7877.95 506.169  16
  -1   2  -5 7810.90 435.249  16
  -1   2  -6 11697.3 596.020   1
  -1  -2  -6 11149.2 391.811  19
  -1  -2  -6 11237.7 680.823  16
  -1   2  -6 11466.3 594.980  16
   1  -2   6 9440.21 341.941   3
  -1  -2  -6 11609.8 711.449   4
  -1   2  -6 11550.4 637.524   4
   1   2   6 11278.2 567.090  17
   1  -2   6 10674.7 597.203  17
  -1  -2  -7 313904. 3906.63   4
  -1   2  -7 321867. 3491.70   4
  -1  -2  -7 297521. 3890.25  16
  -1   2  -7 302436. 3417.20  16
  -1   2  -7 309142. 3355.86   1
   1   2   7 295778. 3340.47  17
   1  -2   7 299188. 3400.76  17
  -1  -2  -8 168.139 135.030   4
  -1   2  -8 179.399 115.571   4
  -1   2  -8 140.237 107.804  16
   1   2   8 293.361 157.487  17
  -1  -2  -8 84.3356 134.167  16
   1  -2   8 28.6008 99.2815  17
   1   2   8 234.108 215.529   2
  -1   2  -8 22.8162 70.3624   1
  -1   2  -9 285491. 4292.34  16
  -1  -2  -9 280108. 4742.61  16
   1   2   9 288824. 5281.14   2
   1  -2   9 277175. 3869.93  17
  -1   2 -10 2981.06 386.736   4
   1  -2  10 2960.27 450.660  17
  -1  -2 -10 2687.10 532.148  16
  -1   2 -10 3018.18 510.528  16
   1   2  10 3157.90 550.585   2
   1  -2  11 16810.1 1373.01   2
   1   2  11 16784.5 1260.31   2
  -1  -2 -11 16397.6 711.668  12
   1  -2  11 16618.0 1145.58  17
  -1  -2 -11 16854.3 701.609  10
  -1   2 -11 17079.0 697.495  10
  -1  -2 -11 17447.0 783.054   7
  -1  -2 -11 16753.1 607.625  15
  -1  -2 -11 17357.1 1493.30  16
  -1   2 -11 15974.4 1359.24  16
   1   2  12 372.834 198.400   2
   1  -2  12 361.690 283.584   2
  -1   2 -12 302.732 108.713  12
  -1  -2 -12 304.967 179.519  12
  -1   2 -12 447.209 160.075   9
  -1  -2 -12 567.505 169.485  10
  -1   2 -12 213.253 117.109  10
  -1  -2 -12 63.6833 222.305  16
   1  -2  12-204.884 213.787  17
  -1  -2 -12 328.177 175.060   7
  -1  -2 -13 39560.8 1438.62   7
  -1   2 -13 37414.9 1394.36   7
   1  -2  13 39443.5 2559.67   2
   1   2  13 39342.1 1916.61   2
  -1  -2 -13 42522.7 1253.98  12
  -1   2 -13 41647.6 1014.73  12
   1  -2  13 38894.6 2155.36  17
  -1   2 -13 42022.9 1318.26  10
  -1  -2 -13 40602.4 1298.85  10
  -1  -2 -13 40424.7 2913.62  16
  -1   2 -13 39539.1 1033.67   9
  -1  -2 -14 1280.71 286.039  10
  -1   2 -14 1457.27 292.418  10
  -1   2 -14 1494.97 196.940   9
  -1   2 -14 970.207 283.647   7
  -1  -2 -14 1385.22 339.385   7
  -1   2 -14 1173.88 201.087  12
  -1  -2 -14 2253.09 392.312  12
  -1   2 -15 91477.5 1551.57  12
  -1   2 -15 88539.5 1207.60   9
  -1  -2 -15 93383.4 2245.15  10
  -1   2 -15 96231.0 2325.90  10
  -1  -2 -15 88855.1 1683.64  12
  -1   2 -15 84218.5 2306.16   7
  -1  -2 -15 86750.5 2375.23   7
  -1  -2 -16 207.014 287.810  10
  -1   2 -16 654.404 252.744  10
  -1  -2 -16 663.422 213.919   7
  -1   2 -16 474.720 192.022   7
  -1   2 -17 193.883 127.053  10
  -1  -2 -17 96.9856 135.721  10
  -1   2 -17 42.3792 134.617   7
  -1  -2 -18 2824.29 231.095  10
  -1   2 -18 2654.84 195.797  10
  -1   2 -18 2646.88 204.721   7
  -1  -2 -18 2894.51 221.379   7
   1   3 -18 362.472 57.0669   9
   1   3 -18 335.903 64.1588  10
   1  -3 -18 429.127 89.3161  10
   1  -3 -18 309.058 80.5353   7
   1   3 -18 304.559 76.7244   7
   1   3 -17 80.2231 63.1187   9
   1   3 -17-32.8765 88.6383  10
   1  -3 -17-204.899 143.900  10
   1   3 -17 74.0857 90.9297   7
   1  -3 -17 91.3044 90.9105   7
   1   3 -16 66116.9 973.356   9
   1  -3 -16 67071.4 1570.69  10
   1   3 -16 67174.7 1450.93  10
   1   3 -16 64862.2 1329.70   7
   1  -3 -16 65878.5 1327.08   7
   1   3 -15 404.499 117.420   9
   1  -3 -15 344.297 220.317  10
   1   3 -15 254.341 177.714  10
   1  -3 -15 376.921 169.627   7
   1   3 -14 76437.1 1318.45   9
   1  -3 -14 78244.5 2335.57  10
   1   3 -13 4700.94 382.058   9
   1  -3 -13 4847.26 557.550   7
   1   3 -13 5055.79 561.110  10
   1  -3 -13 5104.87 559.434  10
   1  -3 -12 1317.33 337.988  12
   1   3 -12 155.122 148.403  10
   1  -3 -12 515.043 188.417  10
   1  -3 -12-765.388 542.950  16
  -1  -3  12 222.471 224.015  17
   1   3 -12 222.822 127.380   9
   1  -3 -12 82.9881 253.642   7
  -1  -3  12 1151.96 418.956   2
  -1   3  12 347.437 172.767   2
   1  -3 -11 2201.96 340.746  12
   1   3 -11 1906.45 281.340  10
   1  -3 -11 1605.01 270.444  10
   1  -3 -11 1986.69 349.432   7
   1   3 -11 1828.52 262.976   9
   1  -3 -11 631.646 436.638  16
  -1  -3  11 2162.93 492.190  17
  -1  -3  11 1763.65 474.018   2
  -1   3  11 1975.27 406.613   2
   1  -3 -10 113684. 4162.95  16
  -1  -3  10 116676. 3259.78   2
  -1   3  10 118927. 2918.80   2
  -1  -3  10 118245. 3092.51  17
   1  -3  -9 5815.73 848.953  16
  -1   3   9 6201.11 660.685   2
  -1   3   9 6909.36 612.144  17
  -1  -3   9 6084.23 637.021  17
   1   3  -9 6571.99 866.256  18
   1   3  -8 223623. 3383.99  16
   1  -3  -8 217156. 4532.96  16
  -1   3   8 226848. 3716.40   2
  -1   3   8 216370. 3278.35  17
   1   3  -8 207715. 4109.44  18
  -1  -3   8 214600. 3404.08  17
  -1   3   7 188.796 172.739   2
   1   3  -7 243.345 86.4326   4
  -1   3   7 175.738 136.612  17
   1   3  -7 326.592 111.209  16
  -1  -3   7 393.329 157.086  17
   1  -3  -7 206.225 153.755  16
  -1  -3   7 459.022 199.115  19
   1   3  -7 632.073 204.100  18
  -1   3   6 10230.6 747.777   2
  -1  -3   6 10881.7 629.563  19
   1  -3  -6 8370.09 413.238   3
   1   3  -6 11811.6 499.206   4
   1   3  -6 10455.9 523.327  16
   1  -3  -6 9626.68 762.717  16
  -1  -3   6 9597.43 602.280  17
   1   3  -6 10394.0 699.585  18
  -1   3   6 10192.2 655.337  17
  -1   3   5 22688.2 1130.41   2
  -1  -3   5 24672.3 780.206  19
   1   3  -5 23248.0 680.088   4
   1  -3  -5 23791.9 679.227   3
   1  -3  -5 25889.6 1110.28  16
   1   3  -5 24680.2 655.986  16
   1   3  -5 23856.1 1063.61  18
  -1  -3   5 24258.0 870.003  17
  -1   3   4 380411. 5478.71   2
  -1   3   4 394845. 1959.85   1
  -1  -3   4 394896. 2843.60  19
   1  -3  -4 403467. 2752.13   3
   1   3  -4 395305. 2016.70  16
   1  -3  -4 398664. 3972.98  16
   1   3  -4 396234. 4409.40  18
  -1  -3   4 383916. 3222.08  17
  -1   3   3 15675.6 370.857   1
  -1  -3   3 15123.6 531.054  19
   1  -3  -3 16436.8 545.084   3
   1   3  -3 14571.6 227.803  16
   1   3  -3 15664.3 629.148  18
  -1  -3   3 15430.2 570.827  17
  -1  -3   2 551962. 3114.66  19
  -1   3   2 530465. 3924.77   2
  -1   3   2 563647. 2468.72   1
  -1  -3   2 562128. 3046.01  17
   1   3  -2 534920. 3069.67  18
   1  -3  -2 545110. 3105.60   3
  -1   3   1 668.584 127.544   2
  -1   3   1 684.673 101.664   1
   1   3  -1 566.624 107.505  18
  -1  -3   1 832.036 107.615  17
   1  -3  -1 469.182 110.913   3
  -1  -3   0 47968.6 576.429  16
  -1  -3   0 49331.9 631.991  17
  -1  -3  -1 36446.9 654.319  16
  -1  -3  -1 36013.3 788.911  19
   1   3   1 36364.9 655.517   2
  -1  -3  -2 995452. 4042.97  16
   1   3   2 901021. 4018.48   2
   1   3   3 203250. 2769.77   2
   1  -3   3 196315. 1718.85  19
   1  -3   3 182463. 1808.15   3
  -1  -3  -3 198900. 2089.51  16
  -1   3  -3 182115. 2129.29  18
  -1  -3  -3 198037. 1928.03  19
   1  -3   4 924772. 3657.75  19
   1  -3   4 929563. 4139.13   3
  -1  -3  -4 931452. 5104.96  16
  -1   3  -4 932374. 6558.74  18
   1   3   5 1910.08 413.237   2
  -1  -3  -5 2008.58 210.603  19
   1  -3   5 1680.50 156.270  19
  -1   3  -5 1666.69 255.767   4
   1  -3   5 1571.45 176.867   3
  -1  -3  -5 1771.07 256.836  16
  -1   3  -5 1698.85 203.322  16
   1   3   5 1599.48 296.616  17
   1  -3   5 1907.30 250.980  17
  -1   3  -5 2302.21 251.437  18
  -1   3  -6 7854.64 562.041   1
   1   3   6 7844.52 763.152   2
  -1  -3  -6 8514.96 434.327  19
   1  -3   6 7528.77 357.985  19
  -1  -3  -6 7865.79 597.206  16
   1  -3   6 7569.56 377.645   3
  -1   3  -6 8215.13 570.222   4
   1   3   6 7725.69 643.645  17
  -1   3  -6 8303.50 474.267  18
   1  -3   6 8089.81 549.862  17
  -1   3  -7 42543.6 1325.90   4
  -1   3  -7 41970.9 1393.62   1
   1   3   7 44781.4 1815.93   2
  -1   3  -7 43873.2 1284.38  16
  -1  -3  -7 45562.9 1579.21  16
   1  -3   7 45324.6 1395.26  17
   1   3   7 42979.9 1677.04  17
  -1   3  -8 170956. 2753.97   4
   1   3   8 162630. 3539.00   2
  -1   3  -8 162626. 2955.15   1
  -1   3  -8 162273. 2797.89  16
  -1  -3  -8 160099. 3308.61  16
   1  -3   8 155615. 2783.18  17
  -1   3  -9 429.689 159.329   4
   1   3   9 674.866 256.218   2
  -1   3  -9 656.221 244.728   1
   1  -3   9 454.277 208.520  17
  -1  -3  -9 478.270 209.997  16
  -1   3  -9 896.426 265.041  16
   1  -3  10 24123.4 1274.81  17
  -1  -3 -10 25645.9 1653.36  16
   1   3  10 26490.4 1516.08   2
  -1  -3 -11 14498.1 725.208   7
   1   3  11 15947.7 1187.52   2
  -1  -3 -11 14451.6 730.576  12
  -1  -3 -11 14949.4 1411.69  16
   1  -3  11 14488.4 1085.92  17
  -1   3 -11 15096.6 640.379   9
  -1  -3 -11 13764.2 637.273  10
  -1   3 -11 13968.8 626.468  10
  -1  -3 -12 22097.9 982.642   7
   1  -3  12 23319.3 1732.90   2
   1   3  12 20583.6 1358.23   2
  -1   3 -12 21966.0 672.909  12
  -1  -3 -12 22880.2 959.865  12
  -1  -3 -12 24446.7 2037.66  16
   1  -3  12 20665.0 1423.11  17
  -1   3 -12 23339.1 915.758   9
  -1   3 -12 22868.8 882.674  10
  -1  -3 -12 22026.3 876.422  10
  -1   3 -13 3387.96 375.732  10
  -1  -3 -13 3316.73 378.790  10
  -1   3 -13 3293.49 348.627   9
  -1  -3 -13 3500.37 453.699   7
  -1  -3 -13 4015.13 519.137  12
  -1   3 -13 3654.67 297.245  12
  -1  -3 -14 108967. 2576.06   7
  -1   3 -14 106292. 2448.05   7
  -1  -3 -14 110081. 1977.36  12
  -1   3 -14 114284. 1688.99   9
  -1   3 -14 118682. 2387.07  10
  -1  -3 -14 118469. 2368.00  10
  -1   3 -14 118303. 1666.84  12
  -1   3 -15 2598.08 411.602  10
  -1  -3 -15 1985.04 355.960  10
  -1  -3 -15 2216.88 396.086   7
  -1   3 -15 1444.47 337.830   7
  -1   3 -15 2302.13 217.172   9
  -1  -3 -16 36112.3 1181.23   7
  -1   3 -16 34161.2 1172.73   7
  -1  -3 -16 39672.1 1512.67  10
  -1   3 -16 36447.1 689.901   9
  -1   3 -16 42006.7 1429.59  10
  -1  -3 -17 839.993 176.148   7
  -1   3 -17 449.717 123.731   7
  -1   3 -17 654.338 149.375  10
  -1  -3 -17 487.230 157.919  10
  -1  -3 -18 15618.8 462.106   7
  -1   3 -18 15559.2 420.035   7
  -1  -3 -18 15775.6 492.588  10
  -1   3 -18 14612.8 364.509  10
   1   4 -18 1500.84 127.578   7
   1  -4 -18 1760.79 136.619   7
   1   4 -18 1514.05 103.441   9
   1  -4 -18 1612.58 139.659  10
   1   4 -17 11813.4 451.601   7
   1  -4 -17 11803.7 438.196   7
   1  -4 -17 11849.7 493.639  10
   1   4 -17 11320.8 342.120   9
   1   4 -17 11450.5 382.850  10
   1  -4 -16 1893.43 231.591   7
   1   4 -16 1869.80 238.795   7
   1   4 -16 1883.90 234.257  10
   1   4 -16 1954.77 180.139   9
   1  -4 -16 1838.00 257.690  10
   1  -4 -15 79358.8 1994.55  10
   1  -4 -15 83836.6 1659.34   7
   1   4 -15 81009.4 1238.68   9
   1  -4 -14 1692.60 364.153  10
   1   4 -14 2671.81 454.252  10
   1   4 -14 2390.53 256.397   9
   1  -4 -14 1992.11 324.396   7
   1   4 -13 8901.36 737.517  10
   1  -4 -13 8503.34 708.555  10
   1   4 -13 8378.57 541.109   9
   1  -4 -13 7735.87 631.265   6
   1  -4 -13 7496.01 656.627   7
  -1  -4  12 5851.83 897.610   2
  -1   4  12 5483.89 686.524   2
   1  -4 -12 5252.25 511.840  10
   1   4 -12 5031.71 496.710  10
   1  -4 -12 4717.71 577.606   7
  -1  -4  12 5090.87 814.591  17
   1   4 -12 4434.38 444.173   9
   1  -4 -12 4858.83 1144.88  16
   1   4 -11 17657.3 645.683  13
  -1  -4  11 16793.3 1324.37  17
   1   4 -11 17389.7 737.099   9
   1  -4 -11 18029.7 985.045   7
  -1   4  11 15936.1 1137.09   2
  -1  -4  11 16804.5 1357.09   2
   1  -4 -11 17062.3 831.098  10
   1   4 -11 16781.0 806.122  10
  -1   4  10 167.963 159.102   2
  -1  -4  10 537.006 244.625  17
   1  -4 -10 291.547 306.451  16
  -1  -4   9 209603. 3806.73  17
   1   4  -9 215950. 4391.98  18
  -1   4   9 216166. 3957.45   2
   1  -4  -9 223705. 5346.57  16
   1   4  -8 35523.4 1539.59  18
  -1  -4   8 36339.3 1448.28  17
  -1   4   8 34745.2 1550.61   2
   1  -4  -8 37009.0 1939.14  16
  -1   4   7 179806. 3519.61   2
   1   4  -7 183554. 3086.54  18
  -1  -4   7 189025. 3007.38  17
   1  -4  -7 190427. 3927.82  16
  -1  -4   7 187584. 2966.37  19
  -1   4   6 934.282 281.965   2
   1   4  -6 974.442 242.908  18
  -1  -4   6 918.938 185.994  19
   1  -4  -6 895.082 284.505  16
  -1   4   6 631.966 272.902  17
  -1  -4   6 850.694 201.372  17
   1   4  -6 850.220 154.118   4
   1  -4  -5 91412.1 2193.84  16
  -1   4   5 91188.8 3092.99   2
  -1  -4   5 89267.4 1547.71  19
  -1  -4   5 85670.1 1713.56  17
   1   4  -5 88892.0 2601.28  18
   1  -4  -5 87379.2 1607.84   3
   1  -4  -4 24251.1 1016.00  16
  -1   4   4 23840.1 484.074   1
  -1   4   4 25646.4 1427.45   2
   1   4  -4 23556.2 975.180  18
  -1  -4   4 23474.6 838.665  17
  -1  -4   4 21823.1 730.013  19
   1  -4  -4 23665.6 792.662   3
  -1   4   3 251184. 1785.88   1
  -1   4   3 269889. 3508.63   2
   1   4  -3 259388. 2584.34  18
  -1  -4   3 259076. 2471.90  17
  -1  -4   3 233393. 2350.45  19
   1  -4  -3 238811. 2495.57   3
  -1   4   2 127869. 1983.23   2
  -1   4   2 129298. 1414.26   1
   1   4  -2 138296. 1719.83  18
  -1  -4   2 129440. 1571.13  17
  -1  -4   2 129597. 1716.66  19
   1  -4  -2 135280. 1800.09   3
  -1   4   1 23402.8 646.545   1
  -1   4   1 23866.1 773.767   2
  -1  -4   1 21685.6 702.709  19
  -1  -4   1 22273.4 569.823  17
   1   4  -1 21874.8 681.116  18
   1  -4  -1 21668.7 727.032   3
  -1  -4   0 18871.7 654.314  19
  -1  -4   0 18238.6 435.450  17
  -1  -4   0 17480.8 386.072  16
  -1   4   0 18898.0 661.668   2
  -1  -4   0 18074.1 642.906   3
   1  -4   0 16863.4 642.455   3
   1   4   0 16788.6 499.715   2
  -1  -4  -1 186558. 1606.81  16
   1  -4   1 185315. 2091.74   3
  -1  -4  -2 69562.0 1148.98  16
   1   4   2 73575.6 1195.79   2
  -1  -4  -2 74616.7 1345.86  19
   1  -4   2 71136.0 1267.89  19
  -1   4  -2 72776.5 1036.05  18
   1  -4   2 71573.0 1303.35   3
   1  -4   3 794589. 4607.74  17
  -1  -4  -3 775557. 4386.36  16
   1   4   3 747363. 4616.94   2
   1  -4   3 819835. 4200.77  19
  -1  -4  -3 778918. 4470.48  19
  -1   4  -3 738844. 3666.91  18
   1  -4   3 765201. 4306.07   3
  -1  -4  -4 21061.7 813.562  16
   1  -4   4 20128.5 793.503  17
   1   4   4 21669.7 1024.46   2
   1  -4   4 21246.6 659.203  19
  -1  -4  -4 21660.0 767.418  19
  -1   4  -4 19588.0 1084.42  18
   1  -4   4 19959.3 701.528   3
   1   4   5 323.693 185.617   2
  -1  -4  -5 603.516 144.402  19
   1  -4   5 577.389 114.331  19
  -1   4  -5 565.680 211.358  18
   1  -4   5 428.732 138.930  17
  -1  -4  -5 373.714 143.610  16
   1  -4   5 879.037 160.986   3
  -1  -4  -6 4738.63 490.152  16
   1   4   6 4513.20 817.193   2
   1  -4   6 4172.88 292.651  19
  -1  -4  -6 4554.98 375.135  19
   1  -4   6 4620.20 446.243  17
  -1   4  -6 4988.48 426.622  18
  -1   4  -6 4381.88 446.803   4
   1  -4   6 5164.91 365.989   3
  -1  -4  -7 238576. 3758.85  16
  -1   4  -7 233978. 3580.14   1
   1   4   7 224753. 4540.10   2
  -1  -4  -7 235905. 2755.36  19
   1  -4   7 225799. 3262.58  17
  -1   4  -7 237417. 3333.79   4
  -1   4  -8 4609.60 552.379   1
   1   4   8 4799.93 649.766   2
  -1  -4  -8 4674.13 593.165  16
   1  -4   8 5063.97 532.009  17
  -1   4  -8 5359.93 512.647   4
   1   4   9 191917. 4076.58   2
  -1   4  -9 192124. 3965.61   1
   1  -4   9 200225. 3556.70  17
  -1  -4  -9 193445. 4211.84  16
   1   4  10 2148.26 439.663   2
  -1  -4 -10 2188.84 338.032  12
  -1   4 -10 1736.30 250.454   5
  -1  -4 -10 1557.96 422.653  16
   1  -4  10 1514.07 347.164  17
  -1  -4 -11 20322.1 1693.56  16
  -1  -4 -11 20325.2 871.138   7
   1   4  11 18838.6 1305.06   2
  -1  -4 -11 20389.3 960.632  12
   1  -4  11 19294.6 1274.45  17
  -1  -4 -11 19203.5 820.694   6
  -1   4 -11 18759.5 906.871   5
  -1   4 -11 19451.3 710.519   9
  -1   4 -11 18634.8 726.732  10
  -1  -4 -11 18245.1 735.242  10
  -1  -4 -12 3912.86 429.478   7
   1  -4  12 3542.92 685.730   2
   1   4  12 3080.85 525.398   2
  -1  -4 -12 4675.28 537.465  12
  -1   4 -12 3301.14 341.294  10
  -1  -4 -12 3739.91 365.041  10
  -1  -4 -12 3476.84 848.367  16
   1  -4  12 2867.56 587.498  17
  -1   4 -12 3867.22 362.625   9
  -1  -4 -12 3170.27 379.882   6
  -1   4 -13 19364.5 896.696   9
  -1  -4 -13 18743.7 1009.29   7
  -1  -4 -13 20638.9 915.885  10
  -1   4 -13 20036.9 900.789  10
  -1   4 -14 9457.44 680.920  10
  -1  -4 -14 8906.45 652.952  10
  -1   4 -14 7835.19 661.013   7
  -1  -4 -14 8429.14 723.592   7
  -1   4 -14 8734.20 513.959   9
  -1   4 -15 89181.6 2224.38  10
  -1  -4 -15 86301.0 2092.50  10
  -1   4 -15 76095.5 2064.72   7
  -1  -4 -15 76564.9 2006.79   7
  -1   4 -15 81764.5 1268.01   9
  -1  -4 -16 5538.67 445.369   7
  -1   4 -16 5726.84 463.986   7
  -1   4 -16 5270.01 272.205   9
  -1   4 -16 6357.21 480.324  10
  -1  -4 -16 5575.13 542.217  10
  -1  -4 -17-11.2645 96.6787  10
  -1   4 -17 23.0022 65.5137  10
  -1   4 -17 30.6985 112.307   7
  -1  -4 -17 110.648 94.8041   7
  -1   4 -17 88.8644 49.7925   9
  -1  -4 -18 1390.22 130.420   7
  -1  -4 -18 1247.09 130.819  10
   1  -5 -18 2552.61 131.357   7
   1  -5 -17 5973.29 284.441   7
   1   5 -17 5883.68 289.516   7
   1   5 -17 6219.12 246.869   9
   1  -5 -17 6198.98 320.228  10
   1   5 -16 53858.4 1078.57   7
   1  -5 -16 53128.4 1036.43   7
   1  -5 -16 54914.5 1223.98  10
   1   5 -16 54051.9 860.248   9
   1  -5 -15 461.813 187.517  10
   1   5 -15 307.524 113.230   9
   1  -5 -15 473.191 160.203   7
   1  -5 -14 65309.9 2052.74  10
   1   5 -14 62454.6 1292.30   9
   1  -5 -14 60308.9 1406.59   6
   1  -5 -14 60201.4 1529.22   7
   1  -5 -13 1725.98 323.173  10
   1   5 -13 2047.97 297.867   9
   1  -5 -13 1525.85 299.327   6
   1  -5 -13 1509.94 299.515   7
   1  -5 -12 859.935 276.666   7
   1   5 -12 1099.86 159.506  13
   1  -5 -12 1863.39 758.780  16
  -1  -5  12 114.928 240.830  17
   1  -5 -12 927.217 234.550  10
   1   5 -12 860.399 205.128   9
  -1  -5  12 1199.79 400.049   2
  -1   5  12 760.035 298.164   2
   1  -5 -11 726.532 247.146   7
   1   5 -11 537.325 158.414  13
   1   5 -11 329.436 164.605   5
  -1  -5  11 547.918 247.856  17
   1  -5 -11 540.837 465.918  16
   1  -5 -11 322.704 154.274  10
   1   5 -11 625.118 160.804   9
  -1  -5  11 1150.72 342.734   2
  -1   5  11 709.455 270.354   2
  -1  -5  10 107415. 3092.35  17
   1  -5 -10 106958. 2141.00   7
   1   5 -10 105224. 1860.88  13
   1   5 -10 109545. 1901.60   5
   1   5 -10 100640. 4037.60   1
  -1   5  10 108753. 3101.58   2
   1  -5 -10 112903. 4375.88  16
   1  -5 -10 106726. 1833.87  10
   1   5 -10 108857. 1599.69   9
  -1  -5   9 3385.78 509.347  17
  -1   5   9 3253.30 545.965   2
   1  -5  -9 3555.37 723.708  16
   1   5  -8 159007. 3134.08  18
  -1  -5   8 163700. 3215.27  17
  -1   5   8 159865. 3762.34   2
  -1  -5   7 50292.0 1487.08  19
   1  -5  -7 49458.3 2075.13  16
  -1   5   7 45533.7 2129.12   2
   1   5  -7 48713.3 1609.58  18
  -1  -5   7 50568.2 1641.21  17
  -1   5   6 539.056 345.665   2
   1   5  -6 765.773 164.533   4
   1  -5  -6 696.575 200.808   3
   1  -5  -6 1254.12 302.587  16
  -1  -5   6 1197.73 240.987  17
   1   5  -6 744.747 221.504  18
  -1  -5   6 883.840 192.729  19
  -1   5   5 40533.2 2092.03   2
  -1  -5   5 36357.2 1073.83  19
   1  -5  -5 38709.6 1252.77   3
   1  -5  -5 38578.0 1482.70  16
  -1  -5   5 35036.7 1169.63  17
   1   5  -5 38366.5 1599.39  18
  -1   5   4 229155. 1764.09   1
  -1  -5   4 222333. 2561.45  19
   1  -5  -4 223906. 2836.19   3
   1  -5  -4 235045. 3300.40  16
  -1  -5   4 216002. 2631.65  17
   1   5  -4 221683. 2972.23  18
  -1   5   3 3901.42 434.694   2
  -1   5   3 3626.19 253.400   1
  -1  -5   3 3680.77 332.235  19
   1  -5  -3 3471.17 344.803   3
   1  -5  -3 3850.02 383.593  16
  -1  -5   3 3422.97 313.763  17
   1   5  -3 3511.38 326.155  18
  -1  -5   2 134272. 1966.42  19
   1  -5  -2 137656. 2079.20   3
  -1   5   2 141236. 2239.09   2
  -1   5   2 132953. 1641.11   1
   1   5  -2 128776. 1834.82  18
  -1  -5   2 143678. 1793.46  17
  -1  -5   1 22659.2 809.489  19
  -1   5   1 23069.1 729.111   1
   1   5  -1 23252.8 785.861  18
  -1  -5   1 23725.8 652.533  17
   1  -5  -1 23554.4 852.050   3
  -1   5   1 22488.8 847.624   2
  -1   5   0 915.426 180.473   2
  -1  -5   0 945.520 100.332  16
  -1  -5   0 1085.01 122.856  17
  -1  -5   0 923.064 179.722  19
   1  -5   0 1132.52 208.734   3
   1   5   1 367.442 98.4328   2
   1  -5   1 137.605 85.3335   3
  -1  -5  -1 340.825 81.9701  16
  -1  -5  -1 217.368 48.4314  17
  -1  -5  -1 169.573 107.616  19
   1  -5   1 251.110 105.329  19
   1   5   2 407371. 3106.98   2
  -1  -5  -2 404592. 3555.78  19
  -1  -5  -2 394678. 2936.71  16
  -1   5  -2 392326. 2825.68  18
   1  -5   2 393478. 3430.37   3
   1   5   3 124.279 92.7078   2
   1  -5   3 83.4328 97.3822   3
   1  -5   3 35.7914 80.5695  17
  -1  -5  -3 193.494 98.8111  16
  -1  -5  -3 130.473 101.252  19
  -1   5  -3 80.0080 53.1995  18
   1  -5   3 324.500 120.784  19
   1   5   4 485014. 4453.92   2
  -1  -5  -4 458031. 3996.34  19
   1  -5   4 482689. 3660.93  19
   1  -5   4 477765. 3871.93   3
   1  -5   4 504560. 4213.09  17
  -1  -5  -4 463650. 4032.60  16
  -1   5  -4 450408. 4248.99  18
   1  -5   5 115924. 1762.38  19
  -1  -5  -5 116262. 2078.18  19
   1  -5   5 112833. 1908.03   3
   1  -5   5 115877. 2159.24  17
  -1  -5  -5 115662. 2241.20  16
  -1   5  -5 117114. 2499.76  18
   1  -5   6 71929.3 1370.01  19
  -1  -5  -6 69117.9 1651.65  19
  -1  -5  -6 71661.9 1945.80  16
   1  -5   6 71727.1 1528.33   3
   1  -5   6 72523.7 1821.18  17
  -1   5  -7 483.259 183.069   4
   1   5   7 404.076 311.720   2
  -1   5  -7 306.699 152.153   1
   1  -5   7 237.447 129.524  17
  -1  -5  -7 494.315 213.040  16
  -1  -5  -7 536.106 143.980  19
  -1   5  -8 119030. 2542.84   4
  -1  -5  -8 107741. 2921.48  16
   1  -5   8 113192. 2614.11  17
   1   5   8 104390. 3819.56   2
  -1   5  -8 114172. 2951.22   1
   1  -5   9 1479.26 325.447  17
  -1  -5  -9 1773.14 428.395  16
   1   5   9 1675.05 479.159   2
  -1   5  -9 1894.21 422.307   1
   1  -5  10 25605.9 1440.36  17
  -1  -5 -10 28797.7 960.270   7
  -1  -5 -10 28529.7 1106.19  12
  -1   5 -10 27545.2 948.048   5
  -1  -5 -10 29871.6 960.231   6
  -1  -5 -10 29864.7 1876.37  16
  -1  -5 -10 28523.7 834.505  10
  -1   5 -10 30142.0 786.326   9
   1   5  10 29596.3 1786.77   2
  -1   5 -10 29822.6 1914.38   1
  -1  -5 -11 733.185 196.415   7
  -1  -5 -11 575.833 146.630   6
  -1   5 -11 715.294 212.331   5
   1  -5  11 1174.82 335.100  17
  -1  -5 -11-60.8507 384.932  16
  -1  -5 -11 576.940 143.128  10
  -1   5 -11 819.331 163.080   9
   1   5  11-301.937 223.202   2
  -1  -5 -12 4599.84 461.619   6
  -1   5 -12 4754.52 389.966   9
  -1  -5 -12 4394.70 395.511  10
  -1  -5 -12 4985.20 493.475   7
   1   5  12 3540.27 606.949   2
  -1  -5 -13 28449.9 1062.04  10
  -1   5 -13 27430.2 1018.20   9
  -1  -5 -13 27094.8 1215.04   7
  -1  -5 -13 26184.0 1177.58   6
  -1  -5 -14 126515. 2365.07  10
  -1   5 -14 128343. 2055.62   9
  -1  -5 -14 128157. 2768.10   7
  -1  -5 -14 123693. 2311.90   6
  -1  -5 -15 5387.45 524.799  10
  -1   5 -15 5866.12 351.364   9
  -1   5 -15 5785.97 553.509   7
  -1  -5 -15 5728.02 529.140   7
  -1  -5 -16 16998.8 799.736  10
  -1   5 -16 17491.6 481.264   9
  -1   5 -16 17850.2 732.214   7
  -1  -5 -16 17895.2 709.346   7
  -1   5 -17 3580.16 173.470   9
  -1  -5 -17 3532.18 261.085  10
  -1  -5 -17 3734.59 255.543   7
  -1  -5 -18 8708.38 263.129   7
   1  -6 -17 4095.25 204.988  10
   1   6 -17 4083.55 188.263   9
   1  -6 -17 4102.22 193.758   7
   1   6 -17 3830.78 192.817   7
   1  -6 -16 137.004 82.7718  10
   1   6 -16 398.473 107.959   7
   1  -6 -16 367.456 103.590   7
   1   6 -16 410.309 101.922   9
   1  -6 -15 68192.9 1527.81  10
   1   6 -15 70570.6 1139.11   9
   1  -6 -15 72283.8 1298.51   7
   1  -6 -15 71411.7 1181.66   6
   1  -6 -14 5163.85 556.234  10
   1   6 -14 5386.26 395.121   9
   1  -6 -14 4704.31 406.159   7
   1  -6 -14 4856.77 409.917   6
   1  -6 -13 24803.0 1128.37   6
   1   6 -13 26908.3 1050.63   9
   1   6 -13 26074.8 692.703  13
   1  -6 -13 23261.8 1018.44   7
   1  -6 -13 26623.9 1183.71  10
   1   6 -12 1146.88 219.297   9
   1  -6 -12 1029.18 232.025  10
   1   6 -12 1178.30 182.875  13
   1  -6 -12 848.991 238.524   7
  -1  -6  11 55015.7 2537.88  17
   1  -6 -11 52201.6 1688.27   7
   1   6 -11 56159.1 1447.77  13
   1   6 -11 52202.2 1434.18   5
   1  -6 -11 53280.3 3443.36  16
   1  -6 -11 55701.7 1441.73  10
   1   6 -11 52699.2 1230.57   9
  -1   6  11 51987.6 2343.76   2
   1  -6 -10-63.7890 156.431   7
   1   6 -10 215.414 140.845  13
   1   6 -10 190.540 107.973   5
   1   6 -10-823.894 485.156   1
  -1   6  10 914.961 312.655   2
   1  -6 -10 175.183 99.7931  10
   1   6 -10 1026.20 188.711   9
   1  -6 -10 385.126 325.767  16
  -1  -6  10-116.188 163.865  17
  -1   6   9 194952. 4714.41   2
   1   6  -9 196728. 2236.33   5
   1  -6  -9 202095. 5339.18  16
   1   6  -9 195794. 1979.71   9
  -1  -6   9 202044. 4072.90  17
   1   6  -9 190187. 2151.55  13
   1  -6  -8 5959.60 836.226  16
  -1   6   8 5743.06 875.387   2
   1  -6  -8 6167.11 694.908  19
  -1  -6   8 5797.05 631.680  17
  -1  -6   7 20212.0 971.524  19
   1  -6  -7 19666.3 1347.81  16
  -1   6   7 18448.5 1794.33   2
  -1  -6   7 18328.4 1035.05  17
   1   6  -7 18402.5 1031.85  18
  -1  -6   6 31156.5 1132.22  19
   1  -6  -6 33864.6 1588.85  16
  -1   6   6 36320.8 2316.56   2
  -1  -6   6 32244.6 1272.87  17
   1   6  -6 32890.5 1634.05  18
   1  -6  -5 19101.3 1012.16   3
  -1  -6   5 19226.7 855.651  19
  -1   6   5 19473.5 1376.96   2
  -1  -6   5 19383.1 913.291  17
   1   6  -5 18504.3 1116.25  18
   1  -6  -5 18988.8 1075.88  16
   1  -6  -4 744.515 220.146   3
   1  -6  -4 1099.14 248.714  16
  -1  -6   4 1061.77 212.621  17
  -1   6   4 778.822 231.630   2
   1   6  -4 1187.60 241.226  18
  -1  -6   4 724.329 179.478  19
   1  -6  -3 193373. 2875.15   3
  -1  -6   3 189745. 2625.37  19
   1  -6  -3 191531. 2791.61  16
  -1   6   3 179953. 1990.03   1
  -1   6   3 185880. 3035.80   2
   1   6  -3 182972. 2506.68  18
  -1  -6   3 185572. 2417.42  17
   1  -6  -2 70415.4 1711.88   3
  -1   6   2 70394.2 1710.27   2
  -1  -6   2 76432.5 1657.97  19
   1  -6  -2 76005.3 1593.75  16
  -1   6   2 74347.5 1379.19   1
  -1  -6   2 71883.5 1383.08  17
   1   6  -2 68964.7 1485.24  18
   1  -6  -1 23197.1 952.829   3
  -1   6   1 21994.6 915.329   2
  -1  -6   1 20173.7 854.620  19
   1  -6  -1 21348.4 758.399  16
  -1   6   1 21807.8 790.936   1
  -1  -6   1 22137.2 694.479  17
   1   6  -1 19929.9 806.688  18
  -1  -6   0 19168.6 843.223  19
  -1  -6   0 18959.7 445.641  16
   1  -6   0 17842.0 847.241  19
  -1  -6   0 17724.3 538.277  17
  -1   6   0 17735.2 802.320   2
   1  -6   0 17934.9 823.309   3
  -1  -6  -1 50328.8 1384.14  19
  -1  -6  -1 50404.7 950.545  16
   1  -6   1 46438.8 1330.79  19
   1  -6   1 48497.3 1363.71   3
   1   6   1 45990.4 1108.55   2
   1  -6   2 53840.9 1404.53  19
  -1  -6  -2 55988.9 1488.85  19
   1  -6   2 54671.0 1299.27  17
  -1  -6  -2 54048.3 1147.81  16
  -1   6  -2 55117.4 1194.59  18
   1  -6   2 56648.3 1461.66   3
   1   6   2 52763.9 1239.50   2
   1  -6   3 249782. 3105.08   3
   1  -6   3 245812. 2977.31  19
  -1  -6  -3 243240. 3167.67  19
  -1  -6  -3 244391. 2782.17  16
   1  -6   3 240404. 2979.42  17
   1   6   3 243413. 2860.82   2
   1  -6   4 5893.11 483.344   3
   1  -6   4 6068.21 465.269  19
  -1  -6  -4 6094.31 517.568  19
   1  -6   4 6856.15 523.320  17
  -1  -6  -4 5596.89 474.633  16
   1   6   4 6500.95 518.590   2
  -1   6  -4 6811.17 516.555  18
   1  -6   5 2767.74 339.299   3
  -1  -6  -5 2978.73 374.265  19
   1  -6   5 3061.71 324.791  19
   1   6   5 2699.77 397.119   2
   1  -6   5 2862.06 366.242  17
  -1  -6  -5 2686.94 363.518  16
   1  -6   6 348.468 111.848   3
   1  -6   6 400.053 159.265  17
  -1  -6  -6 330.457 141.415  16
  -1   6  -6 216.980 156.769   1
   1   6   6 755.437 275.893   2
   1  -6   6 323.526 112.363  19
  -1  -6  -6 520.764 161.094  19
  -1   6  -7 203289. 3511.83   4
  -1  -6  -7 201713. 3282.19  19
  -1  -6  -7 196710. 3708.52  16
  -1   6  -7 198843. 3869.86   1
   1  -6   7 196083. 3368.96  17
   1   6   8-69.5521 258.500   2
  -1   6  -8 432.382 243.574   1
   1  -6   8 181.009 145.173  17
  -1  -6  -8 401.566 218.203  16
  -1   6  -8 331.570 160.226   4
  -1  -6  -9 239474. 2586.01   7
  -1   6  -9 236609. 5124.69   1
   1   6   9 237668. 7125.21   2
  -1   6  -9 230206. 2438.83   5
  -1  -6  -9 231172. 4870.58  16
  -1   6  -9 243910. 2126.76   9
   1  -6   9 229117. 4122.79  17
  -1   6 -10-91.4217 308.333   1
  -1   6 -10 149.805 120.122   5
  -1  -6 -10 33.1863 147.962   6
  -1  -6 -10 13.4523 294.413  16
   1  -6  10 419.519 231.741  17
  -1  -6 -10 231.571 110.002  10
  -1   6 -10 65.6676 104.878   9
  -1  -6 -10 45.6512 157.115   7
  -1  -6 -11 15554.8 793.131   7
   1   6  11 15323.7 1455.25   2
  -1   6 -11 15543.5 787.726   5
  -1  -6 -11 15075.0 776.862   6
  -1  -6 -11 14344.2 1480.38  16
  -1  -6 -11 14736.5 646.569  10
  -1   6 -11 14625.5 604.983   9
   1  -6  11 13075.7 1128.53  17
  -1  -6 -12 3216.98 332.220  10
  -1  -6 -12 3333.55 407.688   6
  -1  -6 -12 3159.19 397.878   7
  -1   6 -12 3472.74 329.771   9
  -1  -6 -13 51835.0 1665.18   6
  -1  -6 -13 52922.4 1702.95   7
  -1   6 -13 55451.8 1390.57   9
  -1  -6 -14 4102.69 423.117  10
  -1  -6 -14 4450.46 459.033   6
  -1   6 -14 4485.05 413.565   9
  -1  -6 -14 4032.14 479.610   7
  -1  -6 -15 49787.6 1482.01  10
  -1   6 -15 48956.2 994.686   9
  -1  -6 -15 48230.9 1296.25   7
  -1  -6 -15 48742.0 1022.55   6
  -1  -6 -16 6909.73 391.778   7
  -1   6 -16 7252.82 301.739   9
  -1  -6 -16 6595.89 416.049  10
  -1  -6 -17 3753.24 214.653   7
  -1   6 -17 3383.57 155.750   9
  -1  -6 -17 3307.98 188.988  10
   1   7 -17 3747.49 162.131   9
   1  -7 -16 34111.4 598.158   7
   1   7 -16 36173.6 628.430   9
   1  -7 -15 1636.98 210.028  10
   1  -7 -15 1589.74 179.919   6
   1   7 -15 1546.49 197.008   7
   1  -7 -15 1727.55 182.277   7
   1   7 -15 1705.55 181.801   9
   1  -7 -14 57810.7 1337.51   6
   1  -7 -14 59759.1 1229.69   7
   1   7 -14 61862.2 1258.85   9
   1   7 -13 14166.1 511.277  13
   1  -7 -13 15062.7 857.457  10
   1  -7 -13 14006.2 708.201   7
   1   7 -13 16046.1 812.923   9
   1  -7 -13 14318.1 842.482   6
   1   7 -12 974.174 177.752  13
   1  -7 -12 793.501 245.515   7
   1   7 -12 791.978 201.390   9
   1  -7 -12 1244.34 315.562   6
   1   7 -11 2765.34 339.814  13
   1   7 -11 2631.32 339.884   5
   1   7 -11 3035.05 316.034   9
   1  -7 -11 2827.87 428.804   7
   1  -7 -10 166205. 5478.78  16
   1  -7 -10 154691. 2694.45   7
   1   7 -10 157261. 2194.59  13
   1   7 -10 158558. 2223.19   5
  -1  -7  10 157568. 4068.68  17
  -1  -7  10 162241. 1939.52  20
   1   7 -10 152644. 5687.01   1
  -1   7  10 169619. 4808.33   2
   1   7 -10 159912. 1972.17   9
   1   7  -9 2617.24 259.724  13
   1   7  -9 2454.58 263.776   5
   1   7  -9 2596.68 249.949   9
  -1  -7   9 2526.68 237.127  20
   1  -7  -9 2199.53 621.513  16
  -1  -7   9 2693.59 508.459  17
  -1   7   9 1253.73 449.655   2
   1   7  -8 96071.7 1391.84  13
   1   7  -8 93736.2 1420.29   5
   1  -7  -8 96851.8 3412.72  16
   1   7  -8 101754. 1364.37   9
  -1  -7   8 101703. 2790.15  17
   1  -7  -8 98188.8 3007.54  19
  -1  -7   7 43003.8 1501.31  19
  -1  -7   7 40644.9 1631.57  17
   1  -7  -7 40934.4 1818.35  19
   1  -7  -7 41870.6 2010.65  16
  -1   7   7 47638.2 3021.96   2
   1   7  -6-16.5712 244.102  18
   1  -7  -6 400.277 224.029  19
  -1  -7   6 420.204 136.820  19
  -1   7   6 403.829 268.353   2
   1  -7  -6 358.463 222.014  16
  -1  -7   6 467.675 178.235  17
   1  -7  -5 17305.2 1076.11   3
  -1  -7   5 16545.9 871.473  19
   1   7  -5 17682.5 1134.89  18
  -1  -7   5 15765.5 882.368  17
   1  -7  -5 16184.3 1033.25  19
  -1   7   5 18485.1 1310.95   2
   1  -7  -5 17170.4 1063.39  16
   1  -7  -4 189518. 3324.42   3
  -1  -7   4 166881. 2727.36  19
   1   7  -4 185359. 3029.08  18
  -1  -7   4 174132. 2700.97  17
   1  -7  -4 171102. 3220.74  19
  -1   7   4 184471. 3543.18   2
   1  -7  -4 180108. 3083.29  16
   1  -7  -3 9476.11 731.320   3
  -1   7   3 9378.80 726.111   2
  -1  -7   3 9556.57 655.166  19
  -1  -7   3 9790.84 601.854  17
   1  -7  -3 9663.78 744.979  19
   1   7  -3 10222.5 651.729  18
  -1   7   3 9733.05 519.429   1
   1  -7  -3 8830.13 627.676  16
  -1   7   2 216757. 3315.74   2
   1  -7  -2 226676. 3469.14   3
  -1  -7   2 222470. 3136.20  19
  -1   7   2 231544. 2695.39   1
   1  -7  -2 226992. 2869.26  16
  -1  -7   2 237914. 2727.26  17
   1   7  -2 245998. 3079.12  18
   1  -7  -2 235420. 3523.25  19
   1  -7  -1 1397.96 262.818   3
  -1  -7   1 1372.84 194.145  17
   1  -7  -1 1671.50 312.461  19
   1   7  -1 1785.11 269.948  18
  -1  -7   1 1354.19 260.517  19
  -1   7   1 1595.90 287.432   2
  -1   7   1 1284.63 210.884   1
   1  -7  -1 1505.52 210.363  16
   1  -7   0 30525.7 1198.58   3
  -1  -7   0 29999.4 1173.74  19
   1   7   0 30305.5 1116.97  18
   1  -7   0 28146.3 1162.79  19
  -1   7   0 30445.0 1094.45   1
   1  -7   0 28752.9 899.351  17
  -1  -7  -1 3682.11 419.577  19
   1  -7   1 3072.16 385.842  19
  -1   7  -1 3875.91 376.545  18
   1  -7   1 3239.03 325.558  17
   1   7   1 3081.56 325.773   2
   1  -7   1 3660.20 422.407   3
   1  -7   2 259568. 3398.19  19
  -1  -7  -2 267773. 3583.39  19
  -1   7  -2 258846. 2903.47  18
   1  -7   2 263907. 3100.18  17
  -1  -7  -2 256747. 2606.69  16
   1  -7   2 257289. 3501.45   3
  -1  -7  -3 20935.7 1030.43  19
   1  -7   3 21584.9 978.327  19
  -1   7  -3 20899.4 832.628  18
  -1  -7  -3 20890.7 850.674  16
   1  -7   3 21771.6 935.034  17
   1   7   3 21286.3 916.723   2
   1  -7   3 21608.2 1011.54   3
  -1  -7  -4 121891. 2543.09  19
   1  -7   4 115278. 2249.54  19
   1  -7   4 119708. 2341.22  17
   1   7   4 122279. 2350.32   2
  -1  -7  -4 121209. 2289.27  16
   1  -7   5 28425.0 1169.47   3
  -1  -7  -5 28810.9 1269.71  19
   1  -7   5 26642.2 1056.31  19
   1  -7   5 28742.2 1211.18  17
   1   7   5 27355.2 1224.56   2
  -1   7  -5 25566.6 1318.35   1
  -1  -7  -5 26539.8 1178.35  16
   1  -7   6 1726.34 265.701  19
  -1   7  -6 1844.46 389.487   1
   1   7   6 1615.57 345.525   2
   1  -7   6 1301.87 280.045  17
  -1  -7  -6 2085.51 375.831  16
  -1   7  -7 7379.23 714.539   4
  -1  -7  -7 8184.27 785.722  16
  -1  -7  -7 8141.44 728.650  19
   1  -7   7 8134.68 722.299  17
   1   7   7 8791.50 927.313   2
  -1   7  -7 7693.85 848.938   1
  -1   7  -8 192712. 2077.82   5
   1  -7   8 191931. 3700.74  17
  -1  -7  -8 185416. 4073.78  16
  -1   7  -8 188279. 1860.35   9
  -1   7  -8 187676. 4464.54   1
  -1   7  -9 470.589 111.226  13
  -1   7  -9 489.440 142.770   5
  -1  -7  -9 471.757 131.191   6
  -1  -7  -9 454.773 149.321   7
   1  -7   9 713.167 287.005  17
  -1  -7  -9 454.038 298.572  16
  -1   7  -9 608.573 138.525   9
   1   7   9 82.1043 197.201   2
  -1   7  -9 454.098 296.498   1
   1  -7  10 89586.6 2828.49  17
  -1  -7 -10 84365.0 3295.95  16
  -1  -7 -10 88007.5 1790.66   7
  -1   7 -10 91728.7 1564.10  13
  -1   7 -10 87540.4 1386.86   9
  -1  -7 -10 86948.3 1750.72   6
  -1   7 -10 95353.7 1735.26   5
  -1   7 -10 86246.1 3687.56   1
  -1  -7 -11 11050.7 683.579   6
  -1   7 -11 13310.5 716.565   5
  -1   7 -11 12588.0 566.077   9
  -1  -7 -11 12452.8 727.752   7
  -1  -7 -12 29400.8 1173.11   6
  -1   7 -12 29365.7 1133.27   5
  -1  -7 -12 28279.8 1179.59   7
  -1   7 -12 29756.6 916.793   9
  -1  -7 -13 25234.2 927.948  10
  -1  -7 -13 22691.7 1098.79   6
  -1  -7 -13 23473.5 1131.51   7
  -1   7 -13 23697.5 890.357   9
  -1  -7 -14 74619.9 1656.65  10
  -1  -7 -14 72444.9 1705.60   6
  -1   7 -14 78199.2 1629.00   9
  -1  -7 -14 72366.0 1716.83   7
  -1   7 -15 253.941 103.508   9
  -1  -7 -15 306.134 120.417   7
  -1   7 -16 18425.2 443.264   9
  -1  -7 -16 18893.5 528.855   7
  -1  -7 -17 4501.31 178.730   7
   1   8 -16 222.583 63.4645   9
   1  -8 -15 36564.8 627.173   7
   1   8 -15 36899.4 724.966   9
   1  -8 -15 36787.5 758.221   6
   1   8 -14 3860.66 215.983  13
   1  -8 -14 4026.20 274.500   7
   1   8 -14 3741.38 302.188   9
   1  -8 -14 3633.82 326.505   6
   1   8 -13 27560.2 694.891  13
   1  -8 -13 30462.6 880.356   7
   1   8 -13 30882.5 1077.44   9
   1  -8 -13 27838.1 1117.37   6
   1   8 -12 39390.1 1034.75  13
   1  -8 -12 38663.3 1166.74   7
   1   8 -12 39436.7 1138.75   9
   1   8 -11 23116.1 933.270  13
  -1  -8  11 23762.0 827.133  20
   1   8 -11 24185.6 945.729   5
   1  -8 -11 22630.9 1033.26   7
   1   8 -11 24095.0 833.540   9
   1   8 -10 723.859 193.485   5
  -1  -8  10 510.014 143.134  20
   1   8 -10 453.195 149.245  13
   1   8 -10 373.122 145.894   9
  -1   8   9 157420. 6103.99   2
   1   8  -9 148240. 5367.39   1
   1   8  -9 145653. 1930.17  13
   1   8  -9 153369. 2014.19   5
  -1  -8   9 139925. 3755.38  17
  -1  -8   9 144635. 1765.71  20
   1   8  -9 149983. 1814.73   9
   1  -8  -9 149184. 4724.02  16
  -1   8   8 14970.1 1874.48   2
   1   8  -8 14027.5 556.244  13
   1   8  -8 13732.7 561.625   5
  -1  -8   8 13771.2 1088.50  17
  -1  -8   8 14008.4 528.732  20
   1   8  -8 13887.5 527.904   9
   1  -8  -8 13644.3 1307.09  16
  -1   8   7 20747.3 1891.26   2
   1   8  -7 19268.1 607.505  13
   1   8  -7 18075.2 602.314   5
  -1  -8   7 19895.5 604.210  20
   1  -8  -7 17608.2 1303.92  19
   1  -8  -7 18425.7 1364.26  16
   1   8  -7 17358.7 561.768   9
  -1  -8   7 19064.7 1207.32  17
  -1  -8   6 34347.3 1390.95  19
  -1  -8   6 32456.1 1456.28  17
   1  -8  -6 31359.5 1641.50  19
   1  -8  -6 33350.8 1673.72  16
  -1  -8   5 46648.7 1582.03  19
   1  -8  -5 47650.9 1804.82  16
  -1   8   5 51685.7 2196.92   2
   1  -8  -5 46715.5 1913.24  19
  -1  -8   5 49971.5 1674.82  17
   1   8  -5 54267.9 2118.31  18
  -1   8   4 930.907 273.077   2
   1  -8  -4 835.517 264.872  19
  -1  -8   4 911.678 241.945  19
   1   8  -4 1307.02 295.272  18
   1  -8  -4 1312.24 311.866   3
   1  -8  -4 1136.91 268.697  16
  -1  -8   4 899.113 203.339  17
  -1  -8   3 134216. 2380.65  17
   1  -8  -3 131202. 2970.22  19
   1   8  -3 134899. 2576.40  18
   1  -8  -3 131436. 2947.37   3
  -1   8   3 138044. 2964.13   2
   1  -8  -3 132164. 2435.84  16
  -1  -8   2 32341.0 1318.32  19
   1  -8  -2 35535.9 1508.16  19
   1   8  -2 31932.5 1225.05  18
   1  -8  -2 34053.8 1451.74   3
  -1   8   2 31522.6 1371.77   2
  -1   8   2 31198.5 1091.20   1
  -1  -8   1 112099. 2448.73  19
   1   8  -1 118192. 2370.10  18
   1  -8  -1 118055. 2639.73   3
  -1   8   1 116126. 2509.18   2
  -1   8   1 118400. 2234.63   1
  -1  -8   0 155691. 2925.51  19
   1  -8   0 149538. 2927.38  19
   1   8   0 152164. 2739.09  18
   1  -8   0 148205. 2974.27   3
  -1   8   0 154092. 2689.07   1
  -1   8  -1 193070. 3167.59   1
  -1  -8  -1 183836. 3231.92  19
   1  -8   1 190885. 3248.78  19
  -1   8  -1 192451. 2858.31  18
   1  -8   1 203362. 3395.26   3
   1  -8   1 201282. 2668.65  17
  -1   8  -2 35771.1 1433.22   1
  -1  -8  -2 30980.2 1352.18  19
   1  -8   2 32411.3 1324.15  19
  -1   8  -2 34775.5 1182.42  18
   1  -8   2 32720.4 1357.85   3
   1   8   2 35747.6 1221.01   2
   1  -8   2 34423.3 1189.45  17
  -1  -8  -3 138102. 2905.72  19
   1  -8   3 140126. 2737.94  19
   1  -8   3 135356. 2490.63  17
   1   8   3 148165. 2604.61   2
   1  -8   3 127798. 2709.47   3
  -1   8  -3 140059. 2961.58   1
  -1   8  -4 7552.20 747.319   1
  -1  -8  -4 8565.45 745.356  19
   1  -8   4 7669.52 640.034  19
   1  -8   4 8512.19 659.647  17
   1   8   4 7599.29 622.699   2
   1  -8   4 8792.25 707.406   3
  -1  -8  -4 7615.97 597.946  16
   1  -8   5 4876.67 527.493  17
  -1   8  -5 5049.30 641.128   1
   1   8   5 4700.89 515.379   2
  -1  -8  -5 5283.80 555.031  16
  -1  -8  -5 4498.31 565.550  19
   1  -8   5 4272.11 478.007  19
   1  -8   6 17644.2 1053.80  17
  -1  -8  -6 19113.5 1178.46  19
  -1   8  -6 17802.4 1265.27   1
   1   8   6 18790.8 1148.45   2
  -1  -8  -6 17624.3 1087.88  16
  -1  -8  -7 62283.2 2214.39  16
  -1   8  -7 71609.0 2359.51   4
  -1   8  -7 61864.6 1070.02  13
  -1   8  -7 65053.5 1175.18   5
  -1   8  -7 68136.2 1129.86   9
  -1  -8  -7 65859.0 2264.77  19
   1  -8   7 64509.5 1061.78  20
  -1   8  -7 66490.7 2644.84   1
   1   8   7 66274.0 2423.12   2
   1  -8   7 58992.0 2041.14  17
  -1  -8  -8 205.417 129.774   7
  -1   8  -8 250.316 102.099  13
  -1  -8  -8 71.4430 110.635   6
  -1   8  -8 370.156 119.755   5
  -1  -8  -8-13.2585 196.763  16
   1  -8   8 110.462 133.771  17
   1  -8   8 179.763 96.0173  20
  -1   8  -8 226.478 109.117   9
  -1   8  -8 256.961 295.750   1
   1  -8   9 111902. 3119.15  17
  -1  -8  -9 117097. 3590.44  16
  -1  -8  -9 122130. 2012.93   7
  -1   8  -9 125926. 1852.86   5
  -1  -8  -9 122351. 1983.31   6
  -1   8  -9 125561. 1680.21  13
   1  -8   9 117296. 1476.98  20
  -1   8  -9 123393. 1609.05   9
  -1   8  -9 119420. 4144.24   1
  -1   8 -10 257.741 115.351  13
  -1  -8 -10 499.080 201.638   7
  -1   8 -10 387.758 111.090   9
  -1   8 -10 717.734 184.264   5
  -1  -8 -10 350.133 152.590   6
  -1   8 -11 6483.19 464.412  13
  -1   8 -11 6517.16 499.456   5
  -1  -8 -11 6599.42 539.890   6
  -1   8 -11 6314.24 412.467   9
  -1  -8 -11 6566.76 557.221   7
  -1  -8 -12 18894.8 945.210   6
  -1   8 -12 19911.8 908.147   5
  -1   8 -12 19907.1 749.026   9
  -1  -8 -12 19630.3 992.960   7
  -1  -8 -13 44563.2 1520.00   6
  -1   8 -13 47326.9 1210.00   9
  -1  -8 -13 44216.4 1393.82   7
  -1  -8 -14 205.593 159.034   6
  -1   8 -14 113.966 142.388   9
  -1  -8 -14 128.456 147.032   7
  -1   8 -15 26144.5 643.676   9
  -1  -8 -15 25643.0 657.291   6
  -1  -8 -15 25902.7 655.999   7
  -1  -8 -16 5734.83 222.629   7
  -1   8 -16 5582.11 224.494   9
   1   9 -16 11868.8 275.428   9
  -1   9  15 811.474 119.062   5
   1  -9 -15 635.433 105.201   6
   1   9 -15 674.228 103.171   9
   1  -9 -14 50642.4 1068.58   6
   1   9 -14 51158.3 962.339   9
   1   9 -14 48882.8 681.479  13
   1  -9 -13 13450.2 719.189   6
   1   9 -13 14173.6 663.814   9
   1   9 -13 14096.9 469.209  13
   1  -9 -12 394.431 224.417   6
   1   9 -12 863.807 161.171  13
   1   9 -12 743.274 200.746   9
   1  -9 -11 9977.99 761.201   6
   1   9 -11 11447.8 641.343   5
   1   9 -11 11148.2 644.650  13
   1   9 -11 11470.9 580.121   9
  -1  -9  11 11630.8 587.202  20
   1   9 -10 79682.9 1577.43   5
   1   9 -10 78579.5 1558.23  13
   1   9 -10 76081.7 1393.39   9
  -1  -9  10 81104.6 1433.10  20
   1   9  -9 8941.66 500.347   5
  -1  -9   9 9428.16 471.550  20
   1   9  -9 8821.37 488.941  13
   1   9  -9 8940.00 456.965   9
  -1   9   8 85109.8 4308.57   2
   1   9  -8 75317.2 3699.48   1
   1   9  -8 79544.5 1356.56  13
   1   9  -8 76782.8 1363.70   5
  -1  -9   8 73472.4 2672.80  17
  -1  -9   8 79579.2 1304.55  20
   1   9  -8 79399.3 1287.78   9
   1  -9  -8 77835.0 3133.42  16
  -1   9   7 16758.9 1664.88   2
   1   9  -7 16586.0 590.368  13
   1   9  -7 16495.4 598.880   5
  -1  -9   7 15691.6 1157.35  17
  -1  -9   7 15135.0 557.106  20
   1  -9  -7 15392.0 1295.97  19
   1   9  -7 15525.1 551.525   9
   1  -9  -7 15614.6 1271.94  16
  -1   9   6 109.569 160.084   2
   1   9  -6 595.578 120.985  13
   1   9  -6 466.628 108.222   5
   1  -9  -6 448.394 244.875  19
  -1  -9   6 713.053 230.437  19
  -1  -9   6 471.444 112.615  20
   1   9  -6 477.794 119.566   9
   1  -9  -6 1183.21 345.191  16
  -1  -9   6 1290.38 333.129  17
   1   9  -5 52646.8 973.149   5
   1  -9  -5 56979.8 2266.91  19
  -1  -9   5 56131.1 1891.67  19
  -1  -9   5 50795.4 971.552  20
  -1   9   5 54924.9 2319.73   2
   1   9  -5 54400.4 999.074  13
   1  -9  -4 92809.4 2793.34  19
  -1  -9   4 97212.7 2464.05  19
   1  -9  -3 1601.07 366.605  19
   1   9  -3 1687.56 314.244  18
  -1  -9   3 1564.57 324.311  19
   1  -9  -3 1511.25 367.013   3
  -1   9   3 1601.92 374.087   2
   1   9  -2 130451. 2692.49  18
  -1   9   2 122455. 2894.96   2
   1  -9  -2 132369. 3149.10   3
  -1   9   2 125257. 2376.34   1
   1  -9  -2 131292. 3138.08  19
  -1  -9   2 126570. 2805.54  19
   1   9  -1 25221.7 1193.84  18
   1  -9  -1 27125.9 1405.03   3
  -1   9   1 25089.0 1123.28   1
  -1  -9   1 26241.1 1298.43  19
   1  -9  -1 26170.3 1369.92  19
   1   9   0 1836.67 339.961  18
  -1  -9   0 1763.88 354.912  19
  -1   9   0 1686.31 310.602  18
   1  -9   0 1611.63 348.382   3
  -1   9   0 1223.45 274.245   1
   1  -9   0 2631.02 433.557  19
  -1   9  -1 6644.85 586.723  18
   1   9   1 6428.43 635.149  18
   1  -9   1 6567.44 687.411   3
  -1   9  -1 5265.21 578.074   1
  -1  -9  -1 5971.29 632.683  19
   1  -9   1 5106.08 587.474  19
   1  -9   2 180874. 3524.95   3
  -1   9  -2 175837. 3436.12   1
  -1  -9  -2 188510. 3602.29  19
   1  -9   2 195699. 3565.68  19
   1  -9   3 30370.0 1423.85   3
   1  -9   3 32896.8 1438.72  19
  -1  -9  -3 30742.9 1490.00  19
  -1   9  -3 28518.7 1450.44   1
  -1  -9  -4 85007.9 2529.57  19
  -1   9  -4 81698.7 2574.33   1
   1  -9   4 90675.3 2256.35  17
  -1   9  -5 7064.64 366.663  13
  -1   9  -5 7498.23 390.064   5
  -1  -9  -5 7498.85 405.380   6
   1  -9   5 7087.15 364.481  20
  -1  -9  -5 8639.25 829.678  19
   1  -9   5 8061.74 703.161  19
   1  -9   5 7356.79 683.221  17
  -1   9  -5 6725.31 795.875   1
  -1   9  -6 460.574 248.637   1
  -1   9  -6 586.079 120.639  13
  -1  -9  -6 559.277 133.201   6
  -1   9  -6 695.260 137.107   5
   1  -9   6 819.800 249.084  17
  -1   9  -6 944.336 150.080   9
  -1  -9  -6 540.078 205.526  19
  -1   9  -7 37735.2 869.797   9
  -1   9  -7 35001.7 836.907  13
  -1  -9  -7 36304.5 984.811   6
  -1   9  -7 37132.9 922.465   5
  -1  -9  -7 38626.9 1033.03   7
   1  -9   7 35835.2 828.231  20
  -1   9  -7 36360.5 2053.49   1
   1  -9   7 35251.8 1634.34  17
  -1   9  -8 92113.4 1383.97   9
  -1   9  -8 94479.2 1420.98  13
  -1  -9  -8 93479.0 1661.41   6
  -1   9  -8 94530.9 1543.79   5
  -1  -9  -8 98464.6 1767.68   7
   1  -9   8 94944.2 1355.99  20
  -1   9  -8 92076.2 3517.88   1
   1  -9   8 90340.3 2755.63  17
  -1   9  -9 821.366 153.815  13
   1  -9   9 844.080 149.071  20
  -1   9  -9 683.383 166.330   5
  -1  -9  -9 663.748 166.381   6
  -1   9  -9 996.885 177.776   9
  -1  -9  -9 731.678 193.280   7
  -1   9 -10 21436.7 767.031  13
   1  -9  10 22129.6 677.233  20
  -1   9 -10 22898.7 732.011   9
  -1  -9 -10 22690.5 966.607   7
  -1  -9 -10 23018.6 931.872   6
  -1   9 -10 21448.5 831.003   5
  -1   9 -11 17695.8 749.962  13
  -1   9 -11 18569.6 685.074   9
  -1  -9 -11 18834.8 931.885   7
  -1  -9 -11 18906.0 887.908   6
  -1   9 -11 17979.0 803.950   5
  -1   9 -12 13939.2 580.905  13
  -1  -9 -12 14794.0 831.424   6
  -1   9 -12 13717.9 733.373   5
  -1  -9 -12 13233.8 761.588   7
  -1   9 -12 15252.4 642.165   9
  -1  -9 -13 5091.81 502.855   6
  -1  -9 -13 5972.79 414.087   7
  -1   9 -13 6410.42 439.608   9
  -1  -9 -14 40673.4 1052.70   6
  -1  -9 -14 42469.0 834.024   7
  -1   9 -14 40981.4 986.063   9
  -1  -9 -15 1125.43 127.826   6
  -1  -9 -15 899.675 96.3215   7
  -1   9 -15 887.720 115.658   9
   1  10 -15 47211.5 598.862   9
   1 -10 -15 46833.8 615.330   6
   1 -10 -14 1117.10 152.243   6
  -1  10  14 1179.46 151.001   5
   1  10 -14 1108.69 133.906   9
   1  10 -13 6225.09 385.467   9
   1  10 -13 6275.59 281.660  13
  -1  10  13 6453.58 422.483   5
   1 -10 -13 6186.52 436.354   6
  -1 -10  12 15543.7 590.333  20
   1  10 -12 15287.4 683.854   9
   1  10 -12 15761.3 580.957  13
  -1 -10  11 8030.04 489.985  20
   1  10 -11 8224.23 489.631   9
   1  10 -11 8319.87 544.543  13
   1  10 -11 7525.24 507.434   5
   1 -10 -11 6790.79 623.327   6
  -1 -10  10 3448.46 320.417  20
   1  10 -10 3310.91 310.793   9
   1  10 -10 3145.87 329.923  13
   1 -10 -10 3028.67 407.543   6
   1  10 -10 3555.37 346.216   5
  -1 -10   9 88259.8 1462.48  20
   1  10  -9 84784.1 1404.20   9
   1  10  -9 82757.2 1500.10  13
   1  10  -9 84668.5 1514.69   5
   1 -10  -9 84357.0 1903.24   6
  -1 -10   8 29539.6 822.011  20
   1  10  -8 29041.4 796.034   9
   1  10  -8 29569.6 852.921  13
   1  10  -8 27134.4 823.110   5
   1  10  -7 38427.8 930.394   5
   1  10  -7 37448.7 873.379   9
   1 -10  -7 37257.6 2161.95  19
  -1 -10   7 36256.8 891.530  20
   1  10  -7 37084.5 2490.19   1
   1  10  -7 38843.0 936.511  13
   1  10  -6 2844.93 253.670  13
  -1  10   6 2917.85 278.006  13
  -1  10   6 2183.88 280.324   5
   1  10  -6 2390.37 233.067   5
   1  10  -6 2498.46 233.345   9
  -1 -10   6 2221.92 232.017  20
  -1  10   6 2952.17 611.289   2
   1  10  -6 1893.96 503.631   1
  -1 -10   6 3053.94 478.863  19
   1 -10  -6 2581.94 543.810  19
  -1  10   5 70011.1 1421.02   5
   1  10  -5 70980.1 1177.41   5
   1  10  -5 69633.3 1130.90   9
  -1 -10   5 70703.8 1200.20  20
  -1 -10   5 73326.8 2318.31  19
   1 -10  -5 72505.5 2743.10  19
  -1  10   5 73196.3 2766.13   2
   1  10  -5 70395.6 1192.87  13
  -1  10   5 68443.9 1261.50  13
  -1  10   4 20234.0 726.102   5
   1  10  -4 19546.1 607.438   5
   1  10  -4 19304.3 580.115   9
   1 -10  -4 16575.5 1274.68  19
  -1 -10   4 18858.6 1175.94  19
  -1 -10   4 21210.0 650.454  20
  -1  10   4 20016.2 1330.36   2
  -1  10   4 19147.5 659.366  13
   1  10  -4 19350.5 615.435  13
   1 -10  -3 125419. 3386.06  19
  -1 -10   3 130581. 3060.89  19
  -1 -10   3 141907. 1644.95  20
   1  10  -3 139177. 1623.51  13
  -1  10   3 141142. 1770.27  13
  -1  10   3 132795. 1783.72   5
   1  10  -3 131277. 1540.34   5
   1 -10  -2 36885.8 855.282  20
   1 -10  -2 34212.0 1730.29  19
  -1 -10   2 35550.5 1615.08  19
  -1 -10   2 36590.6 831.840  20
   1  10  -2 38077.7 1591.46  18
  -1  10   2 36681.4 893.018  13
   1  10  -2 35477.3 820.576  13
   1  10  -2 36525.4 807.881   5
  -1  10   2 37943.6 922.730   5
  -1  10   1 17814.7 622.274   5
   1  10  -1 17239.0 552.624   5
  -1  10   1 18429.0 1032.11   1
   1 -10  -1 16367.8 1168.25  19
  -1 -10   1 17486.9 573.170  20
   1 -10  -1 16527.3 575.087  20
  -1 -10   1 15692.9 1078.79  19
   1  10  -1 17142.7 565.993  13
  -1  10   1 16756.5 596.368  13
   1  10  -1 16616.3 1048.29  18
  -1  10   1 16677.3 1078.31  18
  -1  10   0 99617.6 1448.63   5
  -1  10   0 94844.4 2460.30   1
   1 -10   0 100077. 2844.77  19
  -1 -10   0 98473.1 1351.44  20
   1 -10   0 99885.8 1401.82  20
  -1 -10   0 100041. 2757.19  19
  -1  10   0 98696.0 1423.35  13
   1  10   0 97883.5 1339.95  13
  -1  10   0 103067. 2571.90  18
   1  10   0 101493. 2627.05  18
  -1  10  -1 27389.8 754.003   5
   1  10   1 26889.1 1297.72   1
  -1  10  -1 26448.1 1367.18   1
   1 -10   1 28172.8 1485.78  19
  -1 -10  -1 25400.8 1402.44  19
   1 -10   1 28185.9 747.961  20
   1  10   1 26058.5 692.209  13
  -1  10  -1 26462.3 733.283  13
   1  10   1 26988.4 1400.28  18
   1  10   2 6968.22 364.950   5
  -1  10  -2 7006.64 384.053   5
  -1  10  -2 7162.44 747.708   1
   1 -10   2 8030.47 787.098  19
  -1 -10  -2 7650.59 796.415  19
   1 -10   2 7306.55 383.369  20
  -1  10  -2 7378.62 388.594  13
   1  10   2 7250.19 369.156  13
   1  10   2 7489.05 763.235  18
  -1  10  -3 152542. 1779.91   5
   1  10   3 159291. 1763.68   5
  -1  10  -3 150034. 3525.63   1
  -1 -10  -3 155238. 3585.54  19
   1 -10   3 157847. 3402.57  19
   1 -10   3 151278. 1735.86  20
  -1  10  -3 155690. 1774.19  13
   1  10   3 152730. 3539.59  18
  -1 -10  -4 235.271 96.0965   6
   1  10   4 600.016 128.319   5
  -1  10  -4 407.231 120.086   5
  -1  10  -4 88.2249 215.106   1
   1 -10   4 231.309 92.2662  20
   1 -10   4 218.707 226.502  19
  -1 -10  -4 388.474 148.740  19
  -1  10  -4 125.486 90.1583  13
  -1  10  -5 25724.5 747.431   5
   1  10   5 23843.5 724.754   5
  -1 -10  -5 26334.5 774.240   6
  -1  10  -5 23956.5 1554.72   1
   1 -10   5 26006.0 1346.22  19
   1 -10   5 24142.2 700.295  20
  -1 -10  -5 24909.3 1496.06  19
  -1  10  -5 23507.3 693.384   9
  -1  10  -5 26377.3 735.328  13
  -1  10  -6 4518.74 311.566  13
  -1 -10  -6 4012.30 324.978   6
  -1  10  -6 4236.92 318.409   5
   1  10   6 3747.32 300.873   5
  -1  10  -6 4252.81 704.660   1
   1 -10   6 4436.31 306.914  20
  -1 -10  -6 4341.07 658.662  19
  -1  10  -6 4069.69 296.804   9
  -1 -10  -7 51202.3 1182.19   6
   1  10   7 51471.9 1128.72   5
  -1  10  -7 51325.8 1117.33   5
  -1  10  -7 52417.8 1050.04   9
  -1  10  -7 54703.7 1089.55  13
   1 -10   7 53106.3 1044.51  20
   1  10   8 10771.4 541.782   5
  -1  10  -8 12286.1 571.577   5
  -1 -10  -8 11020.9 584.165   6
   1 -10   8 11048.7 481.290  20
  -1  10  -8 11405.9 502.171   9
  -1  10  -8 11444.8 512.421  13
  -1 -10  -9 70632.8 1527.29   6
  -1  10  -9 73554.3 1442.49   5
  -1 -10  -9 73096.6 1704.13   7
   1 -10   9 68577.3 1199.63  20
  -1  10  -9 69872.1 1242.25   9
  -1  10  -9 70871.7 1309.45  13
  -1  10 -10 4869.47 405.243   5
  -1 -10 -10 4649.18 422.636   6
  -1 -10 -10 5158.26 484.099   7
   1 -10  10 4884.56 332.169  20
  -1  10 -10 4609.56 342.211   9
  -1  10 -10 5114.80 381.305  13
   1  10  11 130.764 122.527   5
  -1 -10 -11 67.4783 149.040   6
  -1  10 -11 148.824 141.094   5
  -1 -10 -11 219.804 163.817   7
   1 -10  11 182.966 98.6282  20
  -1  10 -11 456.787 147.872   9
  -1  10 -11 63.0496 106.812  13
  -1  10 -12 8086.33 535.510   5
  -1 -10 -12 8082.28 592.475   6
   1  10  12 8965.77 561.674   5
  -1  10 -12 8698.90 476.319   9
  -1  10 -12 8598.60 413.318  13
  -1 -10 -12 8583.40 453.082   7
  -1  10 -13 27042.2 849.743   9
  -1 -10 -13 25545.5 1011.44   6
  -1 -10 -13 27077.2 624.360   7
  -1  10 -14 119.799 94.1764   9
  -1 -10 -14 187.189 103.558   6
  -1  10 -15 33949.1 521.204   9
  -1 -10 -15 33422.9 514.004   6
   1 -11 -14 19341.8 456.376   6
   1  11 -14 17951.2 386.442   9
   1  11 -13 8840.65 366.840   9
   1  11 -13 8536.10 276.616  13
   1 -11 -13 8651.64 428.875   6
  -1  11  13 9197.14 415.414   5
  -1 -11  12-29.5940 74.9911  20
   1  11 -12 46.5679 124.894   9
   1  11 -12 146.743 73.2508  13
  -1  11  12 180.399 132.922   5
   1 -11 -12 129.801 138.352   6
  -1 -11  11 6728.58 438.965  20
   1  11 -11 6380.99 424.295   9
   1  11 -11 6697.66 452.879  13
   1 -11 -11 5735.80 545.113   6
   1  11 -11 6676.91 457.762   5
  -1  11  11 6056.51 578.852   5
  -1 -11  10 31723.8 914.280  20
   1  11 -10 31016.8 876.156   9
   1  11 -10 29850.6 944.997  13
   1  11 -10 29497.0 914.034   5
   1 -11 -10 29915.1 1177.71   6
  -1 -11   9 9213.16 484.197  20
   1  11  -9 9147.94 467.481   9
   1  11  -9 9328.99 508.288  13
  -1  11   9 10131.0 720.180   5
   1 -11  -9 9110.96 623.923   6
   1  11  -9 9280.24 501.255   5
  -1 -11   8 120603. 1685.99  20
   1  11  -8 121225. 1618.11   9
   1  11  -8 123324. 1754.93  13
  -1  11   8 125654. 2343.78   5
   1 -11  -8 125047. 2133.75   6
   1  11  -8 125351. 1755.39   5
  -1 -11   7 34118.5 886.103  20
   1  11  -7 32355.4 821.527   9
   1  11  -7 32207.6 874.795  13
   1 -11  -7 34207.4 1052.98   6
   1  11  -7 34280.6 888.532   5
  -1  11   7 33262.1 1122.13   5
  -1 -11   6 3493.73 290.239  20
   1  11  -6 3192.82 266.094   9
  -1  11   6 3230.99 292.626  13
   1  11  -6 3675.62 299.442  13
  -1  11   6 3434.48 349.859   5
   1  11  -6 3365.85 278.858   5
   1 -11  -6 3352.15 320.313   6
  -1 -11   5 16592.3 608.051  20
   1  11  -5 17380.0 574.332   9
  -1  11   5 17326.3 654.105  13
   1  11  -5 17676.9 624.257  13
   1  11  -5 18164.0 616.050   5
  -1  11   5 17187.8 719.195   5
   1 -11  -5 17136.3 672.731   6
  -1  11   4 119143. 1803.78   5
   1 -11  -4 117918. 1659.20   6
   1  11  -4 116871. 1528.59   5
   1  11  -4 114010. 3655.02   1
  -1 -11   4 123153. 3181.97  19
   1 -11  -4 110763. 3490.41  19
  -1 -11   4 124116. 1623.49  20
   1  11  -4 118569. 1460.05   9
  -1  11   4 116983. 1670.74  13
   1  11  -4 117678. 1572.83  13
  -1  11   3 1660.75 214.773   5
   1  11  -3 1786.17 195.947   5
   1  11  -3 1489.11 409.206   1
  -1 -11   3 1937.65 213.906  20
   1 -11  -3 1989.83 217.228  20
   1  11  -3 1993.45 214.064  13
  -1  11   3 1898.14 223.972  13
   1 -11  -3 1907.93 466.539  19
  -1  11   3 1637.38 415.656  18
  -1 -11   3 1802.03 425.865  19
  -1  11   2 59082.1 1202.28   5
   1  11  -2 58059.5 1053.04   5
   1  11  -2 58561.3 2343.51   1
   1 -11  -2 59715.8 1142.96  20
  -1 -11   2 53574.0 2097.67  19
   1 -11  -2 60240.3 2453.96  19
  -1 -11   2 57959.2 1094.35  20
  -1  11   2 56886.4 1151.01  13
   1  11  -2 59424.6 1102.26  13
  -1  11   2 54254.8 2153.46  18
   1  11  -1 12010.0 484.760   5
  -1  11   1 12495.2 544.820   5
   1  11  -1 10501.5 958.655   1
   1 -11  -1 12793.3 1119.35  19
  -1 -11   1 12151.3 500.360  20
  -1 -11   1 10891.2 959.477  19
   1 -11  -1 12136.3 516.983  20
  -1  11   1 12354.5 531.844  13
   1  11  -1 12380.1 503.845  13
   1  11  -1 12587.5 983.851  18
   1  11   0 316.358 93.4053   5
  -1  11   0 170.061 97.9406   5
   1  11   0 220.268 174.351   1
  -1  11   0 255.097 159.630   1
   1 -11   0 107.953 82.2272  20
  -1 -11   0 309.330 93.6802  20
  -1  11   0 22.0097 121.934  13
   1  11   0 208.557 85.0299  13
   1  11   0-26.0760 238.997  18
  -1 -11   0 177.049 182.928  19
   1 -11   0-150.252 180.786  19
  -1  11  -1 18824.5 652.983   5
   1  11   1 20083.8 633.755   5
  -1  11  -1 19325.6 1233.81   1
  -1 -11  -1 19403.8 1310.58  19
  -1 -11  -1 19435.9 625.519  20
   1 -11   1 16493.0 1207.95  19
   1 -11   1 20455.0 665.620  20
  -1  11  -1 20283.7 675.959  13
   1  11   1 20091.8 636.053  13
   1  11   1 19245.7 1250.74  18
   1  11   2 106468. 1471.55   5
  -1  11  -2 107050. 1540.56   5
  -1  11  -2 99270.8 2892.29   1
   1 -11   2 112795. 3099.38  19
  -1 -11  -2 103881. 3081.61  19
   1 -11   2 103387. 1496.93  20
  -1  11  -2 105506. 1524.65  13
   1  11   2 104248. 1440.09  13
   1  11   2 105366. 3008.32  18
  -1  11  -3 12319.1 529.320   5
   1  11   3 12182.8 510.963   5
  -1  11  -3 12394.4 1073.29   1
   1 -11   3 12052.0 518.001  20
  -1 -11  -3 11728.3 1053.64  19
   1 -11   3 11577.2 978.596  19
  -1  11  -3 12407.6 526.815  13
   1  11   3 11723.7 482.447  13
   1  11   3 11468.0 1037.96  18
  -1  11  -4 99380.4 1499.31   5
   1  11   4 98883.1 1458.89   5
  -1 -11  -4 101404. 1469.09   6
  -1  11  -4 98181.4 3120.55   1
  -1 -11  -4 93855.1 3004.89  19
   1 -11   4 104280. 2881.01  19
   1 -11   4 96618.9 1443.00  20
  -1  11  -4 100799. 1480.93  13
   1  11   4 99063.6 3134.89  18
   1 -11   5 19123.8 645.621  20
  -1  11  -5 19407.8 673.549   5
   1  11   5 20452.6 677.755   5
  -1 -11  -5 19220.1 671.997   6
  -1  11  -5 19984.1 645.206   9
  -1  11  -5 19596.2 658.411  13
   1 -11   6 25581.6 743.798  20
  -1  11  -6 24596.0 765.754   5
  -1 -11  -6 24452.2 783.168   6
   1  11   6 25230.5 767.041   5
  -1  11  -6 24635.2 718.807   9
  -1  11  -6 25659.5 751.409  13
   1 -11   7 17800.2 616.395  20
   1  11   7 17151.4 647.791   5
  -1  11  -7 16991.0 654.955   5
  -1 -11  -7 16238.9 664.947   6
  -1  11  -7 17990.8 618.527   9
  -1  11  -7 17208.0 622.995  13
   1 -11   8 74078.9 1249.14  20
   1  11   8 75030.4 1376.55   5
  -1 -11  -8 71642.9 1442.32   6
  -1  11  -8 75168.4 1401.22   5
  -1  11  -8 71954.9 1233.97   9
  -1  11  -8 74330.3 1310.30  13
   1 -11   9 1497.35 189.137  20
   1  11   9 1245.75 199.783   5
  -1 -11  -9 1572.40 247.022   6
  -1  11  -9 1227.66 203.196   5
  -1  11  -9 1425.66 191.628   9
  -1  11  -9 1286.97 196.043  13
   1 -11  10 16947.2 598.516  20
  -1 -11 -10 16566.1 762.704   6
   1  11  10 17313.5 693.031   5
  -1  11 -10 17856.1 723.560   5
  -1  11 -10 17808.6 624.992   9
  -1  11 -10 16846.4 667.854  13
   1 -11  11 18218.8 631.035  20
  -1  11 -11 18993.1 656.959   9
  -1  11 -11 17702.5 700.023  13
   1  11  11 20205.9 748.587   5
  -1  11 -11 17258.3 726.445   5
  -1 -11 -11 18699.3 828.722   6
  -1  11 -12 1728.13 221.625   9
  -1  11 -12 1686.77 159.765  13
  -1 -11 -12 1653.12 278.493   6
  -1 -11 -13 18871.2 698.610   6
  -1  11 -13 19382.8 641.071   9
  -1 -11 -14 46746.6 732.011   6
  -1  11 -14 47136.7 678.019   9
   1 -12 -13 9014.66 329.421   6
   1  12 -13 8657.34 258.235   9
  -1  12  12 10365.3 452.741   5
   1 -12 -12 9584.36 473.038   6
   1  12 -12 10487.8 389.794   9
   1  12 -12 9865.01 322.424  13
  -1 -12  11 2562.63 253.882  20
  -1  12  11 2127.08 293.245   5
   1 -12 -11 2360.00 337.870   6
   1  12 -11 2623.45 270.457   9
   1  12 -11 3066.67 256.430  13
  -1 -12  10 1892.10 235.435  20
  -1  12  10 1698.46 312.878   5
   1  12 -10 2004.80 244.419   5
   1 -12 -10 1436.53 267.027   6
   1  12 -10 1729.88 218.118   9
   1  12 -10 1664.18 234.183  13
  -1 -12   9 48150.8 1084.63  20
   1  12  -9 46599.7 1071.92   5
   1 -12  -9 45730.6 1305.97   6
   1  12  -9 47227.5 1017.52   9
   1  12  -9 48307.8 1125.54  13
  -1 -12   8 12237.7 542.968  20
   1  12  -8 12657.2 549.453   5
  -1  12   8 13306.1 733.405   5
   1 -12  -8 12744.8 661.477   6
   1  12  -8 12012.0 509.887   9
   1  12  -8 12596.2 561.119  13
  -1 -12   7 27019.8 791.225  20
  -1  12   7 26951.6 979.212   5
   1  12  -7 26848.1 775.112   5
   1 -12  -7 26159.9 894.749   6
   1  12  -7 25149.5 713.199   9
   1  12  -7 26231.0 787.456  13
  -1 -12   6 31566.9 853.470  20
  -1  12   6 32393.1 1022.55   5
   1 -12  -6 31826.1 934.539   6
   1  12  -6 30575.1 816.071   5
   1  12  -6 32335.0 790.525   9
   1  12  -6 32405.6 858.162  13
  -1  12   6 33011.8 900.505  13
  -1 -12   5 43258.3 992.475  20
  -1  12   5 44243.8 1145.26   5
   1 -12  -5 45472.4 1067.08   6
   1  12  -5 43753.6 952.949   5
   1  12  -5 44425.8 908.439   9
  -1  12   5 44382.0 1039.44  13
   1  12  -5 44520.8 993.963  13
  -1 -12   4 809.942 164.169  20
  -1  12   4 664.956 156.594   5
   1  12  -4 803.048 145.284   5
   1 -12  -4 751.972 153.073   6
  -1  12   4 699.212 153.006  13
   1  12  -4 906.929 172.787  13
  -1 -12   3 94979.0 1461.51  20
   1 -12  -3 93468.0 1488.87  20
   1  12  -3 93631.7 1368.81   5
  -1  12   3 93323.5 1571.36   5
  -1  12   3 95899.3 1516.06  13
   1  12  -3 96160.8 1438.89  13
  -1 -12   2 37742.2 917.695  20
   1 -12  -2 39549.9 953.446  20
  -1  12   2 40075.7 1011.31   5
   1  12  -2 39913.1 891.782   5
   1  12  -2 39468.8 919.500  13
  -1  12   2 40540.1 988.100  13
  -1 -12   1 14224.8 561.746  20
   1 -12  -1 13832.9 565.446  20
   1  12  -1 14918.5 547.019   5
  -1  12   1 14598.5 601.411   5
  -1  12   1 14842.3 601.540  13
   1  12  -1 14289.3 554.714  13
  -1 -12   0 44850.8 981.555  20
   1 -12   0 43138.9 993.454  20
   1  12   0 44336.3 943.431   5
  -1  12   0 41504.5 999.267   5
  -1  12   0 46314.0 1050.72  13
   1  12   0 43774.6 963.207  13
  -1 -12  -1 21808.3 687.818  20
   1 -12   1 21798.7 705.683  20
  -1  12  -1 22106.7 723.898   5
   1  12   1 23453.5 690.079   5
   1  12   1 21674.2 675.126  13
  -1  12  -1 22119.4 720.921  13
   1 -12   2 10691.2 496.375  20
  -1  12  -2 10720.1 501.131   5
   1  12   2 10260.1 465.992   5
  -1  12  -2 10757.2 503.457  13
   1  12   2 10897.9 473.561  13
   1 -12   3 83062.4 1371.79  20
  -1  12  -3 87001.0 1412.14   5
   1  12   3 80685.1 1306.86   5
  -1  12  -3 84703.2 1307.58   9
   1  12   3 80797.9 1274.25  13
  -1  12  -3 81863.7 1367.52  13
   1 -12   4 8238.85 436.397  20
  -1 -12  -4 8221.82 416.773   6
  -1  12  -4 7538.12 425.180   5
   1  12   4 7625.25 411.057   5
  -1  12  -4 7257.08 392.350   9
  -1  12  -4 7883.65 426.962  13
   1 -12   5 2377.61 235.482  20
  -1 -12  -5 2254.19 234.930   6
   1  12   5 2115.09 233.566   5
  -1  12  -5 2513.69 254.346   5
  -1  12  -5 2458.33 230.120   9
  -1  12  -5 1969.36 219.931  13
   1 -12   6 41280.4 947.148  20
   1  12   6 41140.5 952.379   5
  -1 -12  -6 40199.8 977.409   6
  -1  12  -6 43048.9 1010.76   5
  -1  12  -6 41426.3 914.401   9
  -1  12  -6 42934.0 978.251  13
   1 -12   7 44183.5 965.419  20
  -1 -12  -7 44685.3 1057.95   6
  -1  12  -7 49047.5 1089.75   5
   1  12   7 44949.4 1000.92   5
  -1  12  -7 45800.3 957.005   9
  -1  12  -7 48272.6 1036.01  13
   1 -12   8 4273.50 304.317  20
  -1  12  -8 4458.87 341.181   5
  -1 -12  -8 4327.77 354.080   6
   1  12   8 3948.21 301.710   5
  -1  12  -8 4144.47 295.981   9
  -1  12  -8 4219.72 317.757  13
   1 -12   9 26927.6 736.504  20
   1  12   9 26376.3 768.249   5
  -1 -12  -9 25998.7 860.973   6
  -1  12  -9 27260.4 837.931   5
  -1  12  -9 25165.4 713.978   9
  -1  12  -9 25599.6 775.165  13
   1 -12  10 2619.17 245.169  20
  -1  12 -10 2584.35 274.733   5
  -1 -12 -10 2738.02 310.177   6
  -1  12 -10 2640.84 248.020   9
  -1  12 -10 2302.90 251.924  13
   1 -12  11 560.614 119.421  20
  -1  12 -11 662.539 137.784   9
  -1  12 -11 659.732 135.183  13
  -1 -12 -11 148.740 147.381   6
  -1  12 -11 545.085 136.985   5
  -1  12 -12 18048.1 616.774   9
  -1 -12 -12 15953.8 706.300   6
  -1  12 -13 19724.0 449.849   9
  -1 -12 -13 19540.6 514.158   6
   1 -13 -12 272.927 72.3685   6
  -1 -13  11 2659.81 176.905  20
  -1  13  11 2300.36 211.435   5
   1 -13 -11 1990.63 219.377   6
   1  13 -11 2488.79 174.506   9
   1  13 -11 2575.12 175.384  13
  -1 -13  10 18897.3 661.055  20
   1 -13 -10 18690.3 798.530   6
   1  13 -10 20545.8 653.847   9
   1  13 -10 19930.8 662.990  13
  -1 -13   9 1114.83 182.484  20
   1 -13  -9 1306.30 236.586   6
   1  13  -9 1373.46 189.300   5
  -1  13   9 1434.61 246.696   5
   1  13  -9 1197.70 175.400   9
   1  13  -9 1040.86 175.259  13
  -1 -13   8 56538.0 1138.53  20
   1 -13  -8 57173.9 1288.63   6
   1  13  -8 57978.7 1108.85   5
   1  13  -8 56267.8 1052.77   9
   1  13  -8 56999.5 1156.90  13
  -1 -13   7 41007.2 967.522  20
   1 -13  -7 41203.6 1041.85   6
   1  13  -7 40551.1 914.417   5
  -1  13   7 43210.0 1167.76   5
   1  13  -7 40899.3 876.311   9
   1  13  -7 40476.5 954.513  13
  -1 -13   6 236.545 112.826  20
   1 -13  -6 161.643 106.282   6
  -1  13   6 245.452 138.131   5
   1  13  -6 310.742 106.305   5
   1  13  -6 145.565 89.6600   9
   1  13  -6 111.590 99.8395  13
  -1 -13   5 14526.4 578.182  20
   1 -13  -5 14151.5 559.265   6
   1  13  -5 14047.0 533.066   5
  -1  13   5 14088.2 629.713   5
   1  13  -5 14742.2 571.230  13
  -1  13   5 15285.1 597.889  13
  -1 -13   4 50379.7 1067.57  20
  -1  13   4 50167.8 1154.17   5
   1  13  -4 50698.2 995.148   5
   1  13  -4 51472.5 1049.80  13
  -1  13   4 49529.5 1072.86  13
  -1 -13   3 3361.97 280.598  20
   1  13  -3 3094.13 253.222   5
  -1  13   3 3308.22 298.582   5
   1  13  -3 3686.17 290.163  13
  -1  13   3 3110.61 277.010  13
  -1 -13   2 43464.0 992.440  20
   1 -13  -2 43047.1 1011.54  20
  -1  13   2 39633.2 986.691   5
   1  13  -2 41632.0 894.569   5
   1  13  -2 43145.6 954.597  13
  -1  13   2 40135.6 971.892  13
  -1 -13   1 7678.69 419.755  20
   1 -13  -1 7783.83 429.423  20
   1  13  -1 7333.88 380.368   5
  -1  13   1 7166.29 419.671   5
  -1  13   1 7805.51 434.894  13
   1  13  -1 7750.90 409.812  13
   1 -13   0 1281.93 184.031  20
  -1 -13   0 1211.38 176.937  20
   1  13   0 1741.70 194.331   5
  -1  13   0 1598.21 208.887   5
   1  13   0 1250.88 173.721  13
  -1  13   0 1504.41 201.150  13
  -1 -13  -1 5236.73 347.106  20
   1 -13   1 5430.57 356.748  20
  -1  13  -1 5313.44 354.084   5
   1  13   1 5682.39 337.612   5
   1  13   1 5278.55 333.005  13
  -1  13  -1 5351.88 359.901  13
   1 -13   2 18950.7 660.808  20
  -1  13  -2 18983.3 654.573   5
   1  13   2 18686.7 607.007   5
  -1  13  -2 19451.2 602.775   9
  -1  13  -2 18390.5 647.528  13
   1  13   2 19050.6 615.774  13
   1 -13   3 5895.72 374.423  20
  -1  13  -3 6593.40 389.618   5
   1  13   3 5907.21 348.528   5
  -1  13  -3 6178.69 346.696   9
   1  13   3 5752.93 336.594  13
  -1  13  -3 5950.63 370.968  13
   1 -13   4 35568.3 888.968  20
   1  13   4 34489.3 822.985   5
  -1  13  -4 34628.3 876.549   5
  -1  13  -4 35766.7 817.638   9
  -1  13  -4 35260.4 876.176  13
   1 -13   5 47911.9 1011.18  20
   1  13   5 45193.7 937.036   5
  -1  13  -5 44224.9 986.980   5
  -1 -13  -5 45137.9 930.676   6
  -1  13  -5 46248.5 924.072   9
  -1  13  -5 46562.5 998.518  13
   1 -13   6 14537.7 556.179  20
   1  13   6 13983.6 522.900   5
  -1  13  -6 15485.5 588.324   5
  -1 -13  -6 14443.7 546.292   6
  -1  13  -6 14825.7 524.741   9
  -1  13  -6 14983.1 566.020  13
   1 -13   7 15466.1 558.858  20
  -1  13  -7 16230.3 603.247   5
   1  13   7 14967.1 533.238   5
  -1 -13  -7 15431.0 578.322   6
  -1  13  -7 15563.2 531.057   9
  -1  13  -7 15794.2 575.248  13
   1 -13   8 47193.3 955.109  20
  -1  13  -8 44087.2 995.232   5
  -1 -13  -8 45774.5 1018.16   6
  -1  13  -8 47007.7 915.140   9
  -1  13  -8 48892.4 1011.16  13
   1 -13   9 400.255 122.393  20
  -1  13  -9 228.506 109.303   5
  -1 -13  -9 187.751 101.241   6
  -1  13  -9 420.489 123.866   9
  -1  13  -9 243.598 112.585  13
  -1  13 -10 15955.7 581.761  13
   1 -13  10 15913.4 545.437  20
  -1 -13 -10 16436.3 644.413   6
  -1  13 -10 16888.6 553.948   9
  -1  13 -10 16603.7 608.521   5
  -1  13 -11 5927.48 234.897  13
  -1 -13 -11 6054.93 398.440   6
  -1  13 -11 6650.26 353.133   9
  -1 -13 -12 6191.93 280.384   6
  -1  13 -12 5861.73 228.350   9
  -1 -14  10 5071.07 235.081  20
   1 -14 -10 4764.90 268.086   6
   1  14 -10 5164.48 231.996  13
  -1 -14   9 36731.3 866.056  20
   1 -14  -9 36327.5 923.709   6
  -1  14   9 40863.5 1010.67   5
   1  14  -9 35869.5 605.833   9
   1  14  -9 40636.9 923.395  13
  -1 -14   8 1197.49 181.960  20
   1 -14  -8 1296.56 181.236   6
   1  14  -8 1343.42 166.818   5
  -1  14   8 1456.25 213.445   5
   1  14  -8 1337.26 184.824  13
  -1 -14   7 7513.13 408.993  20
   1 -14  -7 6884.85 382.071   6
   1  14  -7 6801.78 354.093   5
  -1  14   7 7195.04 437.432   5
   1  14  -7 7176.63 391.845  13
  -1 -14   6 33932.2 858.223  20
   1  14  -6 33599.8 768.634   5
  -1  14   6 33824.0 914.938   5
   1  14  -6 34133.5 832.071  13
  -1 -14   5 13093.8 537.732  20
   1  14  -5 13287.9 485.739   5
  -1  14   5 12149.0 541.775   5
  -1  14   5 13452.7 532.169  13
   1  14  -5 13354.0 520.736  13
  -1 -14   4 30.2343 90.5969  20
  -1  14   4 188.173 110.719   5
   1  14  -4 88.3197 77.0916   5
   1  14  -4 55.5203 95.6438  13
  -1 -14   3 38778.8 921.902  20
  -1  14   3 40687.6 954.182   5
   1  14  -3 40611.9 838.449   5
   1  14  -3 40518.8 898.549  13
  -1  14   3 40960.3 924.091  13
   1 -14  -2 10287.9 491.907  20
  -1 -14   2 9356.51 456.891  20
  -1  14   2 10095.8 474.020   5
   1  14  -2 10096.1 421.312   5
  -1  14   2 10029.5 463.606  13
   1  14  -2 10027.4 449.422  13
  -1 -14   1 9127.10 451.213  20
   1 -14  -1 9006.06 454.209  20
   1  14  -1 10033.9 418.541   5
  -1  14   1 9747.01 463.338   5
   1  14  -1 9519.64 434.927  13
  -1  14   1 9306.65 450.978  13
   1 -14   0 25213.8 744.183  20
  -1 -14   0 25626.9 748.903  20
   1  14   0 24669.1 651.133   5
  -1  14   0 25610.0 735.385   5
   1  14   0 25433.2 696.465  13
  -1  14   0 25086.1 729.775  13
   1 -14   1 17515.2 619.354  20
  -1 -14  -1 17495.3 628.683  20
   1  14   1 18292.7 559.207   5
  -1  14  -1 17835.3 613.110   5
   1  14   1 18154.8 578.329  13
  -1  14  -1 18903.6 635.093  13
   1 -14   2 5708.85 359.581  20
   1  14   2 5598.05 311.443   5
  -1  14  -2 5671.70 347.343   5
   1  14   2 5600.68 320.210  13
  -1  14  -2 5868.91 355.738  13
   1 -14   3 35957.4 866.883  20
   1  14   3 35793.6 770.298   5
  -1  14  -3 37168.2 865.193   5
  -1  14  -3 35220.5 736.697   9
   1  14   3 35980.5 779.162  13
   1 -14   4 13197.5 524.385  20
   1  14   4 13367.4 465.521   5
  -1  14  -4 13103.5 510.594   5
  -1  14  -4 13320.0 456.498   9
  -1  14  -4 13407.4 520.434  13
   1 -14   5 6149.27 359.539  20
   1  14   5 5613.62 298.271   5
  -1  14  -5 6086.48 351.322   5
  -1  14  -5 5676.59 304.251   9
  -1  14  -5 6128.83 353.953  13
  -1  14  -6 27734.3 723.105  13
   1 -14   6 29339.5 745.965  20
  -1  14  -6 28402.5 745.838   5
  -1 -14  -6 26738.7 645.313   6
  -1  14  -6 28375.5 664.200   9
  -1  14  -7 15771.5 546.133  13
   1 -14   7 15993.1 541.856  20
  -1  14  -7 15881.6 554.823   5
  -1 -14  -7 14643.3 493.547   6
  -1  14  -7 15707.1 494.082   9
   1 -14   8 613.469 124.831  20
  -1 -14  -8 517.545 112.676   6
  -1  14  -8 634.052 130.200   5
  -1  14  -8 554.275 118.631   9
  -1  14  -8 681.493 135.464  13
  -1  14  -9 27472.2 706.927  13
   1 -14   9 28085.2 688.572  20
  -1  14  -9 27287.6 705.211   5
  -1  14  -9 28678.2 656.886   9
  -1 -14  -9 28037.2 706.346   6
  -1  14 -10 128.087 78.9981   9
  -1 -14 -10 21.3556 104.601   6
   1  15  -8 15951.8 491.312  13
  -1 -15   8 15879.8 518.063  20
  -1 -15   7 15363.5 546.839  20
   1  15  -7 15479.9 524.795  13
  -1  15   7 16434.9 540.417   5
   1  15  -7 15852.5 456.843   5
  -1 -15   6 997.162 160.971  20
   1  15  -6 1218.16 161.114  13
  -1  15   6 1125.23 158.914   5
   1  15  -6 979.244 128.036   5
  -1 -15   5 14352.5 541.627  20
   1  15  -5 14741.9 513.621  13
  -1  15   5 14355.0 520.621   5
   1  15  -5 15005.7 459.509   5
  -1 -15   4 18279.4 611.215  20
   1  15  -4 18862.2 576.246  13
  -1  15   4 18364.9 573.641  13
   1  15  -4 17495.7 497.793   5
  -1  15   4 18514.8 586.944   5
  -1 -15   3 100.294 83.7091  20
  -1  15   3 59.2749 90.9516  13
   1  15  -3 52.5091 82.1379  13
   1  15  -3 55.8659 63.3829   5
  -1  15   3 54.2910 89.6064   5
  -1 -15   2 31239.4 800.734  20
   1  15  -2 32547.5 744.736  13
  -1  15   2 31187.6 746.909  13
   1  15  -2 33400.2 683.579   5
  -1  15   2 31903.6 755.599   5
  -1 -15   1 16367.8 587.138  20
   1 -15  -1 16599.8 591.085  20
  -1  15   1 16882.5 550.469  13
   1  15  -1 17289.1 538.839  13
  -1  15   1 16573.8 543.705   5
   1  15  -1 16681.9 479.985   5
  -1 -15   0 8219.79 426.242  20
   1 -15   0 7729.35 399.929  20
  -1  15   0 7526.61 372.072  13
   1  15   0 7871.57 359.224  13
   1  15   0 7855.56 328.762   5
  -1  15   0 8229.72 383.340   5
   1 -15   1 4729.86 312.797  20
  -1  15  -1 4248.56 283.544  13
   1  15   1 4496.68 270.281  13
   1  15   1 4562.62 249.983   5
  -1  15  -1 4437.75 282.578   5
   1 -15   2 39516.7 866.343  20
   1  15   2 39233.4 767.359  13
  -1  15  -2 41690.2 853.389  13
  -1  15  -2 40844.4 828.932   5
   1  15   2 37935.2 694.386   5
   1 -15   3 679.202 133.115  20
  -1  15  -3 620.880 123.214  13
  -1  15  -3 612.730 118.227   5
   1 -15   4 6312.39 342.685  20
  -1  15  -4 5871.97 320.661  13
  -1  15  -4 6171.68 321.855   5
   1 -15   5 19363.1 583.603  20
  -1  15  -5 19070.0 562.919  13
  -1  15  -5 18644.2 545.665   5
   1 -15   6 1036.14 144.860  20
  -1  15  -6 924.602 138.965  13
  -1  15  -6 1004.15 139.858   5
   1 -15   7 13830.0 470.936  20
  -1  15  -7 13623.9 468.106  13
  -1  15  -7 14620.4 471.478   5
   1 -15   8 30614.3 669.358  20
  -1  15  -8 32480.3 689.647  13
  -1  15  -8 32219.8 663.417   5
   1  16  -6 10144.9 366.690  13
  -1 -16   6 10392.4 369.550  20
   1  16  -5 2029.79 177.539  13
  -1 -16   5 2088.08 196.015  20
  -1 -16   4 3779.86 263.981  20
   1  16  -4 4471.92 259.475  13
  -1  16   4 4639.03 243.071   5
   1  16  -3 35341.7 706.798  13
  -1  16   3 36383.9 680.722   5
  -1  16   2 16296.4 484.638  13
   1  16  -2 15777.6 468.674  13
  -1  16   2 15945.5 456.728   5
  -1 -16   1 80.8260 85.5777  20
  -1  16   1 323.121 85.8389  13
   1  16  -1 237.395 75.9652  13
  -1  16   1 140.248 65.4045   5
   1  16   0 29356.1 617.149  13
  -1  16   0 29778.2 652.556  13
  -1  16   0 29634.6 617.907   5
   1 -16   1 22734.1 627.137  20
  -1  16  -1 24167.9 587.541  13
  -1  16  -1 24229.9 556.448   5
   1 -16   2 1603.54 174.143  20
  -1  16  -2 1910.06 173.231  13
  -1  16  -2 1817.86 156.794   5
   1 -16   3 26386.7 654.463  20
  -1  16  -3 27007.2 612.895  13
  -1  16  -3 27563.5 580.864   5
   1 -16   4 3062.85 225.278  20
  -1  16  -4 3456.24 222.511  13
  -1  16  -4 3074.89 195.524   5
   1 -16   5 1280.24 147.140  20
  -1  16  -5 1563.76 151.821  13
  -1  16  -5 1349.24 127.792   5
   1 -16   6 16505.7 466.277  20
  -1  16  -6 16681.1 451.291  13
   2   0 -19-46.0679 46.9184  10
   2   0 -19 16.9956 38.3871   7
   2   0 -18 35148.1 704.924  10
   2   0 -18 36433.8 695.350   7
   2   0 -17 41.2058 96.8769  10
   2   0 -17-15.1789 62.6638   9
   2   0 -17 10.8986 88.6296   7
   2   0 -16 13117.7 438.937   9
   2   0 -16 13214.3 664.576  10
   2   0 -16 12749.6 581.875   7
   2   0 -15-36.7848 150.771  10
   2   0 -15 1.95139 72.2703   9
   2   0 -15 57.1168 126.100   7
   2   0 -14 44214.8 1582.64  10
   2   0 -14 41738.2 871.384   9
   2   0 -13 2.01357 86.1777   9
   2   0 -13-119.844 333.429  10
  -2   0  13 306.982 212.122   2
  -2   0  12 316651. 5832.03  17
   2   0 -12 308565. 2426.62   9
   2   0 -12 326747. 4588.03  10
  -2   0  12 320955. 5368.99   2
   2   0 -11-21.4446 182.447  10
   2   0 -11-524.585 449.053  16
  -2   0  11-441.225 290.941  17
  -2   0  11-503.866 245.576   2
  -2   0  10 26238.0 1538.31   2
   2   0 -10 27952.9 2162.25  16
  -2   0  10 29383.3 1939.35  17
  -2   0   9-52.9019 245.703  17
   2   0  -9 76.6252 247.912  16
  -2   0   9 239.852 208.266   2
  -2   0   8 58060.4 2226.78   2
   2   0  -8 51695.2 2289.93  16
  -2   0   8 50647.7 2089.30  17
  -2   0   7-84.8306 193.518   2
   2   0  -7-48.3712 176.919  16
  -2   0   7 122.085 148.499  17
   2   0  -7 159.123 219.654  18
   2   0  -6 552364. 5920.10  16
  -2   0   6 541990. 5990.01   2
   2   0  -5 119.572 184.047  18
  -2   0   5 188.847 173.794  17
  -2   0   5 57.7108 152.254   2
   2   0  -4 78096.9 2051.26  18
  -2   0   4 75819.6 1953.09  17
  -2   0   3-13.1065 138.776   2
  -2   0   2 475349. 3486.18   1
  -2   0   2 475815. 3335.51   2
   2   0  -1 304.352 162.511  18
  -2   0   1 145.553 63.5724   2
  -2   0   1 49.6078 109.143   1
  -2   0   1 196.126 118.606  17
  -2   0   0 578286. 4585.41  19
  -2   0   0 576430. 3800.27   4
  -2   0  -1 339.068 77.5104  16
  -2   0  -1 50.7397 52.8290   1
  -2   0  -1 1.89910 80.0010   4
  -2   0  -1 95.1133 159.989  19
   2   0   1 115.118 36.1832  18
  -2   0  -2 2910.84 212.125  16
  -2   0  -2 3425.39 223.364   1
  -2   0  -3 85.7783 65.9963  16
   2   0   3 141.642 52.0572   3
  -2   0  -3 63.9704 64.3229   1
   2   0   4 399128. 2847.07  17
  -2   0  -4 400380. 3790.93   4
  -2   0  -4 405703. 2629.24   1
  -2   0  -5 126.555 93.9455  16
   2   0   5 79.2527 72.1466  17
  -2   0  -5 154.700 77.5354   1
   2   0   5 58.2588 31.0493   3
  -2   0  -5-92.3277 139.868   4
  -2   0  -6 339422. 3512.15  16
  -2   0  -6 339282. 2976.28   1
  -2   0  -6 343634. 3842.75   4
   2   0   6 340860. 3127.87  17
   2   0   7-27.7740 96.0221  17
  -2   0  -7 104.098 115.315  16
  -2   0  -7-67.5517 79.4452   1
  -2   0  -7 287.378 142.144   4
  -2   0  -8 25152.4 1187.68  16
  -2   0  -8 24532.8 1130.55   4
   2   0   8 23636.2 987.716  17
   2   0   9 57.7850 110.677  17
  -2   0  -9 175.076 157.246  16
   2   0   9-133.642 213.192   2
  -2   0  -9-2.45501 105.600   4
  -2   0 -10 307328. 5143.42  16
   2   0  10 319129. 4356.23  17
  -2   0 -10 316607. 4549.51   4
   2   0  10 306984. 5912.61   2
  -2   0 -11-0.72673 131.340   7
  -2   0 -11 5.72058 122.294  12
  -2   0 -11 21.1160 102.466  10
   2   0  11-420.328 288.976   2
  -2   0 -11 47.7282 194.500  16
   2   0  11 479.706 247.136  17
  -2   0 -11-219.020 160.849   4
  -2   0 -12 60269.3 1453.93   7
  -2   0 -12 61956.8 1292.10  12
   2   0  12 59105.7 2373.76  17
   2   0  12 63602.7 3214.84   2
  -2   0 -12 62714.8 2951.90  16
  -2   0 -12 61186.0 1111.23  15
  -2   0 -12 62149.1 1393.04  10
  -2   0 -13 193.832 162.787  15
  -2   0 -13-232.401 203.481  12
  -2   0 -13 759.806 466.616  16
  -2   0 -13 100.364 132.819   7
  -2   0 -13 150.095 131.941  10
   2   0  13 696.521 309.704   2
  -2   0 -14 2060.14 267.243  12
  -2   0 -14 2333.88 331.121  10
  -2   0 -14 2212.70 330.278   7
  -2   0 -15 70.7517 169.951  12
  -2   0 -15-153.803 182.762  10
  -2   0 -15 128.264 172.989   7
  -2   0 -16 43084.8 1124.56  12
  -2   0 -16 42015.2 1470.41  10
  -2   0 -17-0.81445 134.925   7
  -2   0 -17 3.78736 161.399  10
  -2   0 -18 93540.7 1244.87   7
  -2   0 -18 97336.0 1348.13  10
   2   1 -19 37311.2 507.909   7
   2  -1 -19 36390.4 511.960  10
   2   1 -18 127.009 49.8145   9
   2  -1 -18 28.9665 68.5539   7
   2   1 -18-11.4109 74.4190   7
   2  -1 -18 49.6444 64.9919  10
   2   1 -18 36.4905 66.9851  10
   2   1 -17 43687.5 916.729   7
   2  -1 -17 42204.1 901.012   7
   2  -1 -17 41581.4 965.820  10
   2   1 -17 41641.6 688.135   9
   2   1 -17 42174.3 945.937  10
   2   1 -16 758.651 122.678   9
   2  -1 -16 714.977 112.025   9
   2   1 -16 732.609 168.791   7
   2  -1 -16 713.988 169.017   7
   2  -1 -16 555.588 169.210  10
   2   1 -16 335.101 120.535  10
   2   1 -15 4394.41 383.741   7
   2  -1 -15 4114.60 377.628   7
   2   1 -15 3979.91 265.537   9
   2   1 -15 4349.68 449.010  10
   2  -1 -15 4527.62 465.055  10
   2  -1 -15 3774.18 258.337   9
   2  -1 -14 14371.4 737.312   7
   2   1 -14 13719.0 511.121   9
   2  -1 -14 13580.5 886.593  10
   2  -1 -14 13963.1 506.940   9
   2   1 -14 14435.7 911.673  10
  -2  -1  13 132352. 3938.06  17
  -2   1  13 128424. 3267.12   2
  -2  -1  13 123206. 3462.54   2
   2  -1 -13 124959. 1515.58   9
   2  -1 -13 134426. 3066.61  10
   2   1 -13 129083. 1603.40   9
   2   1 -13 140253. 3181.63  10
   2  -1 -13 121171. 4605.92  16
   2   1 -12 1716.54 204.072   9
   2  -1 -12 1608.36 610.249  16
  -2   1  12 1401.98 333.662  17
  -2  -1  12 1335.82 483.897  17
   2  -1 -12 1812.87 363.207  10
   2   1 -12 2410.93 430.024  10
   2  -1 -12 1852.75 195.506   9
  -2  -1  12 1474.67 424.307   2
  -2   1  12 1621.07 364.853   2
  -2  -1  11 89832.4 3093.54   2
  -2   1  11 83613.6 2559.51   2
   2   1 -11 85715.3 2123.92  10
   2  -1 -11 84815.8 2107.77  10
   2   1 -11 85228.3 1365.76   9
   2  -1 -11 79231.9 4345.22  16
   2   1 -11 80232.7 4170.46  16
  -2  -1  11 84300.3 3482.21  17
  -2   1  11 90115.1 2809.06  17
  -2   1  10 4291.43 583.845   2
  -2  -1  10 6138.16 837.761   2
   2  -1 -10 3935.59 913.784  16
  -2  -1  10 3985.53 700.775  17
   2   1 -10 3850.90 765.520  16
  -2   1  10 5252.78 694.456  17
  -2   1   9 28440.7 1415.74   2
  -2  -1   9 27409.7 1675.92   2
   2   1  -9 26831.7 1780.97  16
   2  -1  -9 24342.8 1857.76  16
  -2  -1   9 25501.9 1543.96  17
  -2   1   9 27182.1 1537.16  17
  -2   1   8 13740.9 952.012   2
  -2  -1   8 14697.4 1092.33   2
   2   1  -8 14607.5 1150.06  16
   2  -1  -8 14215.6 1269.63  16
  -2   1   8 15569.7 1150.61  17
  -2  -1   8 14970.3 1060.91  17
   2   1  -8 14212.3 1126.17  18
  -2   1   7 293620. 4129.29   2
  -2  -1   7 282487. 4250.12   2
   2  -1  -7 254199. 4833.21  16
   2   1  -7 273378. 4377.53  16
  -2   1   7 304865. 4869.42  17
   2   1  -7 277831. 4416.32  18
  -2  -1   7 289953. 4167.57  17
  -2   1   6 2574.05 384.566   2
  -2  -1   6 2788.90 392.008   2
  -2  -1   6 2705.57 378.880  17
   2   1  -6 2874.76 412.492  18
  -2   1   6 2656.33 452.979  17
   2  -1  -6 3044.83 224.775   3
   2   1  -6 2868.24 404.102  16
   2  -1  -6 3124.32 494.480  16
  -2   1   5 187696. 2874.79   2
  -2  -1   5 183596. 2693.07   2
  -2   1   5 184564. 3152.46  17
  -2  -1   5 187852. 2812.38  17
   2   1  -5 182702. 2799.51  18
  -2  -1   5 180762. 2494.98  19
   2  -1  -5 193527. 2044.35   3
  -2  -1   4 24516.8 880.270   2
  -2   1   4 24660.9 944.881   2
  -2  -1   4 25623.8 981.878  17
   2   1  -4 25802.0 990.345  18
  -2   1   4 26483.0 1059.62  17
   2  -1  -4 24871.7 1124.47  18
  -2  -1   4 26014.3 1087.10  19
   2  -1  -4 24312.4 781.949   3
  -2   1   3 8309.46 446.450   1
  -2  -1   3 8720.22 462.091   2
  -2   1   3 8524.98 557.052  17
  -2  -1   3 8248.45 559.561  19
   2  -1  -3 8035.37 458.521   3
  -2   1   2 22240.7 987.922   2
  -2   1   2 21756.4 645.927   1
  -2  -1   2 19602.6 632.611   2
  -2  -1   2 19039.5 934.654  17
   2  -1  -2 19043.5 772.975  18
  -2   1   2 22112.6 1023.72  17
  -2  -1   2 19467.6 717.018  19
   2  -1  -2 21091.5 694.353   3
   2  -1  -1 393357. 2984.09  18
  -2  -1   1 381578. 3540.77  17
   2   1  -1 385838. 2436.62  18
  -2  -1   1 386410. 2195.00   2
  -2  -1   1 392719. 4333.10   1
  -2   1   1 394296. 2273.95   1
  -2   1   1 380367. 2547.00   2
   2  -1  -1 401664. 2816.70   3
  -2   1   0 79979.4 994.430   1
  -2  -1   0 80793.8 1913.25   1
   2  -1   0 85079.1 1136.24  18
   2   1   0 74237.0 918.417  18
  -2  -1   0 83994.1 1069.37  17
  -2  -1   0 77167.6 1379.11   4
  -2   1   0 74641.3 955.734   2
  -2  -1   0 80081.2 1093.81  19
  -2  -1  -1 140867. 1352.47  19
  -2   1  -1 156370. 1425.35   1
  -2  -1  -1 141699. 2838.76   1
  -2  -1  -1 148963. 1347.25  16
  -2  -1  -1 144565. 2066.54   4
   2  -1   1 142461. 1443.84   3
  -2   1  -2 6649.75 310.555   1
  -2  -1  -2 6959.64 592.324   1
   2  -1   2 6162.02 291.242   3
  -2  -1  -2 6652.82 280.622  19
  -2   1  -2 7010.37 325.588  16
  -2  -1  -2 6641.48 323.760  16
  -2   1  -3 108202. 1346.69   1
  -2  -1  -3 100100. 1940.04   1
   2  -1   3 102873. 1143.14   3
  -2  -1  -3 111247. 1097.54  19
  -2  -1  -3 108343. 1470.63  16
  -2   1  -3 107553. 1410.07  16
  -2   1  -4 4879.03 309.000   1
  -2  -1  -4 5283.02 453.554   1
  -2  -1  -4 4772.48 435.177   4
  -2   1  -4 4502.94 417.820   4
   2  -1   4 4315.82 230.874   3
  -2  -1  -4 4581.71 236.541  19
  -2  -1  -4 4289.57 334.179  16
   2   1   4 4930.33 283.968  17
  -2   1  -4 4364.71 322.826  16
   2  -1   5 481060. 3614.31  17
  -2   1  -5 471886. 3667.93  16
  -2  -1  -5 494469. 3921.96  16
   2   1   5 494175. 3228.95  17
   2   1   5 473903. 1989.61   3
  -2   1  -5 469880. 4328.66   4
  -2  -1  -5 491781. 4541.89   4
  -2   1  -5 491837. 3302.69   1
  -2  -1  -5 461785. 4522.32   1
   2  -1   6 1395.97 228.225  17
  -2  -1  -6 1818.37 273.019  16
  -2   1  -6 1803.55 263.949  16
   2  -1   6 1469.62 123.207   3
  -2   1  -6 1911.37 302.503   4
  -2  -1  -6 1699.73 292.749   4
   2   1   6 1990.67 233.187  17
  -2  -1  -6 1908.93 239.475   1
  -2   1  -6 1530.02 206.104   1
  -2   1  -7 189075. 2847.99  16
  -2  -1  -7 189118. 3000.23  16
  -2  -1  -7 204018. 3219.24   4
  -2   1  -7 187492. 2954.65   4
   2  -1   7 189437. 2645.92  17
   2   1   7 183252. 2435.63  17
  -2   1  -7 196583. 2540.94   1
   2   1   7 202046. 3856.89   2
  -2  -1  -8 12270.0 856.199  16
  -2   1  -8 12429.1 815.793  16
  -2  -1  -8 12560.8 842.399   4
  -2   1  -8 11807.3 776.606   4
   2  -1   8 11396.9 712.976  17
   2   1   8 12032.3 691.995  17
   2   1   8 10854.1 1020.03   2
  -2   1  -9 49593.8 1821.11  16
  -2  -1  -9 49668.8 1913.42  16
  -2  -1  -9 51669.4 1798.45   4
  -2   1  -9 50447.7 1686.58   4
   2   1   9 52780.7 1606.18  17
   2  -1   9 50755.2 1617.41  17
   2   1   9 52897.7 2457.01   2
   2   1  10-383.052 295.724   2
   2  -1  10 32.7212 225.442   2
   2  -1  10-88.2433 123.546  17
  -2   1 -10 68.4212 149.626  16
   2   1  10 271.748 191.160  17
  -2  -1 -10 235.066 178.830  16
  -2  -1 -10-244.168 162.276   4
  -2   1 -10 115.565 123.494   4
   2  -1  11 192851. 3802.09  17
  -2  -1 -11 213118. 2496.54   7
  -2   1 -11 210208. 2479.94   7
  -2  -1 -11 212175. 2356.41  12
  -2   1 -11 209367. 2093.32  12
  -2  -1 -11 209511. 2355.90  10
  -2   1 -11 209090. 2334.14  10
   2   1  11 221062. 5525.38   2
   2  -1  11 197064. 4950.67   2
  -2   1 -11 224664. 3934.13   4
  -2  -1 -11 210318. 4050.84   4
  -2   1 -11 213951. 4764.10  16
  -2  -1 -11 209989. 2032.41  15
  -2  -1 -11 212060. 4869.27  16
  -2  -1 -12 58.8862 114.897   7
  -2   1 -12 78.6778 167.324   7
  -2   1 -12 154.338 104.418  12
  -2  -1 -12 8.81397 195.361  12
  -2   1 -12 138.981 113.658  10
  -2  -1 -12 141.139 106.967  10
   2  -1  12-43.1110 157.574   2
   2   1  12 617.088 286.850   2
  -2  -1 -12 141.618 190.758  16
  -2   1 -12 855.904 383.025  16
   2  -1  12 316.259 175.973  17
  -2  -1 -12 238.103 101.764  15
  -2   1 -12 17.0960 134.070  15
  -2  -1 -13 26891.0 942.975  12
  -2   1 -13 26462.1 847.455  12
  -2  -1 -13 26884.8 2203.43  16
  -2  -1 -13 30212.5 848.669  15
  -2   1 -13 25708.6 714.545  15
  -2   1 -13 28633.1 1025.67  10
  -2  -1 -13 28150.0 1017.11  10
  -2   1 -13 29420.2 1099.82   7
  -2  -1 -13 28294.4 1097.65   7
   2   1  13 25567.9 1672.70   2
  -2  -1 -14 335.980 154.303  10
  -2   1 -14 490.691 173.187  10
  -2   1 -14 695.142 235.458   7
  -2  -1 -14 424.439 201.676   7
  -2   1 -14 256.732 177.372  12
  -2  -1 -14 287.109 192.147  12
  -2   1 -15 6614.58 586.347   7
  -2  -1 -15 7081.88 623.414   7
  -2   1 -15 7087.03 465.920  12
  -2  -1 -15 8363.24 582.420  12
  -2   1 -15 7424.40 606.782  10
  -2  -1 -15 7784.09 621.777  10
  -2   1 -16 1559.38 261.496  12
  -2   1 -16 1181.26 279.215   7
  -2  -1 -16 1256.20 293.349   7
  -2  -1 -16 1023.57 261.663  10
  -2   1 -16 1341.88 289.698  10
  -2  -1 -17 44020.2 1338.12  10
  -2   1 -17 44269.1 1293.00  10
  -2  -1 -17 40556.6 1137.69   7
  -2   1 -17 41043.1 1140.68   7
  -2  -1 -18 1159.87 163.673  10
  -2   1 -18 1205.28 157.131  10
  -2  -1 -18 1049.14 150.889   7
  -2   1 -18 1367.37 164.424   7
   2  -2 -18 33720.0 680.999  10
   2   2 -18 34245.4 499.539   9
   2   2 -18 33550.0 608.552  10
   2  -2 -18 35757.1 647.248   7
   2   2 -18 34958.4 657.793   7
   2  -2 -17 887.596 157.326  10
   2   2 -17 840.235 112.477   9
   2   2 -17 978.310 150.551  10
   2  -2 -17 840.149 141.255   7
   2   2 -17 979.487 158.262   7
   2   2 -16 16528.1 492.900   9
   2  -2 -16 16516.7 731.007  10
   2   2 -16 16994.6 709.185  10
   2  -2 -16 17107.4 651.051   7
   2   2 -16 17209.3 658.120   7
   2   2 -15 1860.71 300.135  10
   2   2 -15 1699.29 187.983   9
   2  -2 -15 1739.99 295.572  10
   2  -2 -15 1809.64 186.555   9
   2  -2 -15 1816.81 261.877   7
   2  -2 -14 74270.4 1172.96   9
   2   2 -14 74671.2 1218.53   9
   2  -2 -14 78237.7 2084.32  10
   2  -2 -14 76225.3 1687.05   7
   2   2 -13 677.626 142.017   9
   2  -2 -13 826.180 146.987   9
   2  -2 -13 747.586 226.898   7
  -2  -2  13 386.672 179.752   2
   2  -2 -13 1581.93 586.706  16
  -2  -2  13-207.072 286.002  17
   2   2 -13 595.649 228.994  10
   2  -2 -13 232.826 256.544  10
   2   2 -12 203795. 3620.20  10
   2  -2 -12 201090. 3587.86  10
   2  -2 -12 191988. 1902.78   9
  -2   2  12 190774. 3886.85   2
  -2  -2  12 204397. 4922.17   2
   2   2 -12 195385. 2197.96   9
  -2  -2  12 194553. 5743.90  17
   2  -2 -11 3061.46 417.603  10
   2  -2 -11 3006.93 238.170   9
   2   2 -11 3201.99 413.505  10
  -2   2  11 3120.63 507.394   2
  -2  -2  11 3473.32 720.170   2
  -2   2  11 3268.36 487.023  17
   2   2 -11 3026.32 304.668   9
   2  -2 -11 2924.04 869.789  16
  -2  -2  11 1881.18 494.776  17
  -2   2  10 39509.0 1649.38   2
  -2  -2  10 39380.3 2088.87   2
  -2  -2  10 39046.6 2040.45  17
  -2   2  10 41652.3 1655.88  17
   2  -2 -10 40533.6 2762.75  16
  -2  -2   9 166.105 238.456   2
  -2   2   9 131.431 152.911   2
   2   2  -9 7.18865 176.015  18
   2   2  -9-504.623 280.961  16
  -2   2   9 131.058 139.648  17
   2  -2  -9 195.278 318.467  16
  -2  -2   9 364.408 246.308  17
  -2   2   8 135069. 2778.39   2
  -2  -2   8 139141. 3091.05   2
  -2  -2   8 137205. 3063.08  17
  -2   2   8 140708. 2845.39  17
   2   2  -8 139693. 3094.41  18
   2  -2  -8 135932. 4034.76  16
   2   2  -8 138732. 3245.10  16
   2   2  -7 39153.3 1465.63  18
  -2   2   7 40602.9 1437.45  17
  -2  -2   7 42897.0 1549.09  17
  -2   2   7 36827.6 1382.87   2
  -2  -2   7 40832.9 1481.74   2
   2  -2  -7 37900.7 1942.25  16
   2   2  -7 40416.3 1525.34  16
  -2  -2   7 37988.4 1174.53  19
   2   2  -6 321535. 3748.53  16
   2  -2  -6 313075. 4974.07  16
   2   2  -6 299727. 3685.88  18
  -2   2   6 307882. 3742.32  17
  -2  -2   6 329672. 3861.76  17
  -2   2   6 320019. 3826.29   2
  -2  -2   6 313569. 3824.42  19
  -2   2   5 1347.35 242.633  17
   2   2  -5 1413.16 251.132  16
  -2  -2   5 1693.84 290.276  19
  -2   2   5 1857.04 294.852   2
   2   2  -5 1722.36 292.040  18
  -2  -2   5 1669.85 263.658  17
   2  -2  -5 1596.49 192.172   3
   2   2  -5 1734.10 109.704   4
  -2  -2   4 55984.1 1327.30  19
  -2   2   4 52514.1 1014.04   1
  -2   2   4 55943.8 1547.87   2
  -2  -2   4 56466.7 1359.92  17
  -2   2   4 53601.9 1473.60  17
   2   2  -4 54369.8 1752.12  18
   2  -2  -4 55252.9 1080.78   3
   2   2  -4 56073.5 526.236   4
  -2  -2   3 11090.7 509.978  19
  -2   2   3 12064.3 452.674   1
  -2   2   3 13270.5 924.900   2
   2   2  -3 11682.5 673.842  18
  -2  -2   3 11580.3 583.146  17
  -2   2   3 12864.7 888.976  17
   2  -2  -3 10976.1 473.407   3
  -2  -2   2 264485. 2255.77  19
   2  -2  -2 269716. 2268.04   3
  -2   2   2 285717. 1911.23   1
  -2  -2   2 282142. 2863.17  17
   2  -2  -1 77133.8 1171.63   3
  -2  -2   1 81446.7 1880.82  17
  -2   2   1 76451.3 1270.20   2
  -2   2   1 80305.0 1022.37   1
  -2  -2   0 240511. 1531.02  16
  -2  -2   0 232754. 1895.13  19
  -2   2   0 236692. 2017.54   2
  -2  -2   0 252632. 2262.20  17
   2   2   0 220767. 1812.34  18
  -2   2   0 228444. 1811.30   1
  -2  -2   0 233536. 3205.72   4
   2  -2   1 112.830 66.4165   3
  -2  -2  -1 39.0268 128.680   4
   2   2   1 252.457 41.0031   2
  -2   2  -1 105.181 59.5569   1
  -2  -2  -1 132.999 66.8620  19
   2  -2   2 661822. 3281.11   3
   2   2   2 616195. 4640.79   2
   2  -2   3 15259.0 500.356   3
   2   2   3 17014.1 1558.79   2
  -2   2  -3 16719.8 582.072   1
  -2  -2  -3 15708.4 576.844  16
   2   2   3 16404.8 393.319  17
  -2   2  -3 16226.5 551.332  16
  -2  -2  -3 16841.1 479.857  19
  -2  -2  -4 215408. 2401.92  16
  -2   2  -4 215093. 2196.36  16
  -2   2  -4 218311. 3045.12   4
   2  -2   4 212131. 1838.74   3
  -2  -2  -4 223000. 3191.67   4
   2   2   4 209134. 1692.38  17
  -2   2  -4 222897. 2281.97   1
   2   2   4 198483. 4308.73   2
  -2  -2  -4 216280. 1700.06  19
   2  -2   4 207384. 1296.74  19
  -2  -2  -5 1641.74 247.053  16
   2  -2   5 1601.23 240.890  17
  -2   2  -5 1468.64 215.123  16
  -2   2  -5 1151.20 243.745   4
  -2  -2  -5 1413.53 271.850   4
   2  -2   5 1585.38 163.740   3
   2   2   5 1434.70 164.860  17
  -2   2  -5 1095.69 183.168   1
   2   2   5 1811.80 477.225   2
  -2  -2  -5 1468.69 141.112  19
   2   2   6 273619. 2570.99  17
   2   2   6 269201. 5265.88   2
  -2   2  -6 283106. 2976.22   1
  -2   2  -6 276954. 3036.11  16
  -2  -2  -6 270522. 3332.56  16
  -2   2  -6 276064. 3526.42   4
   2  -2   6 264097. 2014.66   3
  -2  -2  -6 279761. 3863.87   4
   2  -2   7 1526.66 269.167  17
   2   2   7 1886.56 254.627  17
  -2   2  -7 1681.99 264.329   1
   2   2   7 1073.29 419.084   2
  -2   2  -7 1371.40 247.437  16
  -2  -2  -7 1364.33 284.587  16
  -2   2  -7 1362.03 268.220   4
  -2  -2  -7 1659.96 313.643   4
   2   2   8 5727.90 494.001  17
   2   2   8 5942.43 909.699   2
  -2   2  -8 6223.71 549.559   1
  -2  -2  -8 6047.15 618.646  16
  -2   2  -8 5483.63 539.233  16
  -2  -2  -8 5335.55 592.717   4
  -2   2  -8 5613.72 545.801   4
   2   2   9 26272.9 1201.02  17
   2  -2   9 26827.2 1220.35  17
  -2  -2  -9 29491.6 1437.73   4
  -2   2  -9 26797.5 1240.20   4
  -2  -2  -9 26880.8 1433.76  16
  -2   2  -9 26550.2 1318.18  16
   2   2   9 29156.4 1841.17   2
   2  -2  10 126562. 2843.57  17
  -2   2 -10 137179. 2903.70   4
  -2  -2 -10 134992. 3256.80   4
  -2   2 -10 128791. 3256.59  16
  -2  -2 -10 128672. 3475.31  16
   2   2  10 129926. 3780.86   2
  -2  -2 -11 105.467 100.630  15
  -2  -2 -11 5.99232 97.1220   7
  -2   2 -11 59.3522 98.4602  12
   2   2  11-213.334 202.045   2
   2  -2  11 440.102 256.121   2
   2  -2  11-32.4223 152.669  17
  -2   2 -11-13.5664 147.216  16
  -2  -2 -11 274.866 233.032  16
  -2  -2 -11 98.2371 98.4089  10
  -2   2 -11 29.0940 87.2333  10
  -2  -2 -12 78798.0 1567.94  10
  -2   2 -12 73982.2 1510.99  10
   2   2  12 73984.2 2745.81   2
   2  -2  12 76437.2 3253.55   2
  -2   2 -12 73962.7 1309.64  12
  -2  -2 -12 74873.8 1596.83  12
  -2  -2 -12 81918.3 3435.89  16
  -2  -2 -12 72658.8 1310.85  15
   2  -2  12 75706.2 2590.88  17
  -2   2 -12 75728.9 1689.53   9
  -2   2 -12 75378.6 1617.86   7
  -2  -2 -12 78018.4 1681.25   7
  -2   2 -13 967.831 176.063   9
  -2  -2 -13 704.925 230.808  12
  -2   2 -13 903.640 171.429  12
  -2   2 -13 841.206 197.282   7
  -2  -2 -13 1215.35 263.126   7
  -2  -2 -13 1004.55 214.037  10
  -2   2 -13 1052.00 215.909  10
  -2   2 -14 2504.47 257.541  12
  -2  -2 -14 3176.86 413.897  12
  -2  -2 -14 2611.52 380.928   7
  -2   2 -14 2806.98 365.203   7
  -2   2 -14 2900.68 370.434  10
  -2  -2 -14 3073.01 371.511  10
  -2   2 -15-123.482 183.868  12
  -2  -2 -15 11.9458 209.455   7
  -2   2 -15-130.975 183.521   7
  -2  -2 -15-78.9154 219.721  10
  -2   2 -15-59.9356 208.289  10
  -2   2 -16 81343.7 1395.87  12
  -2  -2 -16 84258.6 2035.63  10
  -2   2 -16 83704.7 2079.14  10
  -2  -2 -17 4693.44 391.102   7
  -2   2 -17 4521.03 376.188   7
  -2   2 -17 4751.40 401.346  10
  -2  -2 -17 4649.44 431.147  10
  -2  -2 -18 42561.7 814.494   7
  -2   2 -18 40794.5 726.711   7
  -2  -2 -18 42856.0 870.291  10
  -2   2 -18 42023.6 740.523  10
   2  -3 -18 940.821 108.261   7
   2   3 -18 838.991 107.966   7
   2  -3 -18 901.455 115.935  10
   2   3 -18 933.444 89.2394   9
   2   3 -18 828.862 85.1678  10
   2  -3 -17 77653.9 1114.26   7
   2   3 -17 79167.2 1167.20   7
   2  -3 -17 77981.9 1256.50  10
   2   3 -17 75677.6 1095.48  10
   2   3 -17 76240.3 912.557   9
   2  -3 -16 689.967 146.303   7
   2   3 -16 975.807 177.583   7
   2   3 -16 892.384 130.994   9
   2  -3 -16 849.529 181.400  10
   2   3 -16 714.915 149.756  10
   2  -3 -15 7867.21 491.476   7
   2   3 -15 8120.07 561.430  10
   2  -3 -15 7283.58 564.643  10
   2   3 -15 6956.83 356.045   9
   2  -3 -14 2828.94 341.581   7
   2   3 -14 2807.27 253.546   9
   2   3 -14 3009.20 412.890  10
   2  -3 -14 2685.94 240.611   9
   2  -3 -14 2847.12 422.237  10
   2   3 -13 78388.1 1396.15   9
   2  -3 -13 74786.6 1243.38   9
   2  -3 -13 76192.9 2302.89  10
   2  -3 -13 69782.9 1728.67   7
   2   3 -13 72221.2 1116.28  13
   2   3 -12 5103.29 307.676  13
   2   3 -12 5079.79 593.794  10
   2  -3 -12 5596.78 349.480   9
   2  -3 -12 5493.35 613.241  10
   2  -3 -12 4875.90 503.707   7
   2   3 -12 5913.73 426.855   9
   2  -3 -12 4662.92 998.645  16
  -2  -3  12 4185.49 829.547  17
  -2  -3  12 6109.68 923.164   2
  -2   3  12 4649.58 615.186   2
   2  -3 -11 87195.6 4710.36  16
   2   3 -11 92841.1 1338.19  13
   2  -3 -11 94704.4 2229.18  10
   2   3 -11 99072.8 2249.64  10
   2  -3 -11 93869.0 1399.08   9
   2  -3 -11 81829.4 2147.27   7
  -2   3  11 93538.9 2635.27   2
  -2  -3  11 92810.0 3421.72   2
   2   3 -11 93957.5 1833.71   9
  -2  -3  11 88586.2 3396.54  17
  -2   3  10 7576.99 668.855  17
  -2  -3  10 7210.54 884.708  17
  -2   3  10 6797.85 701.817   2
  -2  -3  10 8677.61 949.184   2
   2  -3 -10 7480.89 1257.02  16
   2   3  -9 17494.1 1138.93  18
  -2  -3   9 15764.3 1145.99  17
  -2   3   9 14574.4 887.747  17
   2  -3  -9 14504.4 1540.86  16
  -2  -3   9 14688.7 1075.55   2
  -2   3   9 15240.9 994.211   2
  -2  -3   8 2148.49 300.539  19
  -2   3   8 2171.48 342.372  17
   2   3  -8 2424.33 392.505  18
  -2  -3   8 2163.05 396.566  17
   2  -3  -8 2020.53 520.872  16
  -2   3   8 2250.54 383.431   2
  -2  -3   7 351977. 4534.71  19
   2   3  -7 351119. 3924.26  16
   2  -3  -7 344500. 5937.58  16
  -2   3   7 335357. 4278.90   2
  -2   3   7 322102. 3849.47  17
  -2  -3   7 345795. 4320.59  17
   2   3  -7 324652. 4059.55  18
  -2   3   6 1674.78 313.511   2
   2  -3  -6 1923.39 233.420   3
   2   3  -6 1932.24 248.910  16
   2  -3  -6 1539.98 421.078  16
  -2   3   6 1590.17 284.988  17
   2   3  -6 1603.00 295.359  18
  -2  -3   6 1434.21 283.456  19
  -2  -3   6 2071.91 321.035  17
  -2   3   5 122309. 1259.11   1
  -2   3   5 126436. 2619.28   2
  -2  -3   5 134462. 2162.46  19
   2  -3  -5 125897. 1845.76   3
   2   3  -5 124711. 1185.86   4
   2   3  -5 131378. 1731.82  16
  -2  -3   5 136775. 2271.87  17
  -2   3   5 123364. 2573.17  17
   2   3  -5 137876. 2853.74  18
  -2   3   4 4759.48 598.458   2
  -2   3   4 5254.24 316.833   1
  -2  -3   4 4504.06 358.161  19
   2  -3  -4 4788.39 357.907   3
   2   3  -4 4648.57 276.296  16
  -2  -3   4 4237.71 376.698  17
   2   3  -4 4223.12 472.354  18
  -2   3   4 5420.15 632.709  17
  -2  -3   3 61392.9 1206.14  19
   2  -3  -3 64654.8 1237.59   3
  -2   3   3 65811.9 966.249   1
  -2   3   3 70080.7 2114.78   2
   2   3  -3 68708.8 1454.33  18
  -2  -3   3 65366.0 1354.06  17
  -2  -3   2 64522.4 1169.98  19
   2  -3  -2 63633.8 1206.48   3
   2   3  -2 66588.4 1211.72  18
  -2   3   2 65667.8 968.272   1
   2  -3  -1 306980. 2611.91   3
  -2   3   1 306325. 2227.17   1
  -2  -3   0 786.236 95.6151  16
  -2  -3   0 783.413 178.343  17
  -2  -3   0 706.543 129.123  19
  -2   3   0 1074.56 143.864   1
  -2  -3  -1 79274.0 1228.37  19
   2  -3   1 77436.5 1275.58   3
  -2  -3  -1 76315.3 1031.66  16
   2   3   1 77019.5 761.873   2
  -2   3  -1 76556.7 1224.99   1
  -2   3  -2 30320.1 828.459   1
   2   3   2 29203.8 625.686   2
  -2  -3  -2 31543.7 774.791  19
   2  -3   2 29443.5 785.554   3
  -2  -3  -2 29089.7 729.409  16
  -2   3  -2 29353.0 403.908  18
  -2  -3  -3 12053.3 482.422  19
  -2  -3  -3 13792.5 899.446   4
   2  -3   3 12154.8 504.902   3
  -2  -3  -3 12607.2 544.950  16
   2   3   3 13010.2 624.092   2
  -2   3  -3 12370.6 560.586   1
   2   3   4 8437.62 790.435   2
  -2   3  -4 7446.81 468.362   1
  -2  -3  -4 7197.87 379.509  19
   2  -3   4 7289.82 328.361  19
   2  -3   4 6758.82 381.474   3
  -2  -3  -4 7374.05 666.122   4
  -2  -3  -4 7963.69 486.050  16
   2   3   4 7556.81 319.567  17
   2   3   5 538231. 8757.74   2
  -2   3  -5 540761. 4234.62   1
   2  -3   5 532414. 2525.50  19
  -2  -3  -5 538636. 3333.64  19
  -2   3  -5 501724. 4955.74   4
   2  -3   5 531458. 3401.46   3
  -2  -3  -5 544865. 5687.66   4
  -2   3  -5 544066. 3850.84  16
  -2  -3  -5 544817. 4425.05  16
   2  -3   5 527615. 4357.04  17
   2   3   5 509894. 3291.70  17
  -2   3  -6 19768.4 867.923   1
   2   3   6 19244.8 1378.55   2
  -2  -3  -6 20036.5 637.278  19
  -2  -3  -6 19537.9 933.488  16
   2  -3   6 21030.5 913.767  17
  -2   3  -6 19605.6 813.880  16
  -2   3  -6 19393.1 990.332   4
   2  -3   6 19044.1 643.494   3
  -2  -3  -6 20520.4 1147.65   4
   2   3   6 19993.7 792.209  17
  -2   3  -7 137702. 2680.32   4
  -2  -3  -7 136938. 3051.29   4
  -2   3  -7 131038. 2425.65   1
   2   3   7 124108. 3392.90   2
  -2  -3  -7 127295. 2611.17  16
  -2   3  -7 126440. 2278.60  16
   2  -3   7 124596. 2370.56  17
  -2   3  -8 737.801 221.782   4
  -2   3  -8 965.861 244.158   1
   2   3   8 715.068 293.431   2
  -2   3  -8 1051.93 243.475  16
   2  -3   8 691.436 198.440  17
  -2  -3  -8 711.260 245.487  16
  -2   3  -9 34087.6 1423.20   4
  -2   3  -9 34912.8 1550.81   1
   2   3   9 31208.1 1713.58   2
  -2  -3  -9 31562.3 1587.79  16
  -2   3  -9 30164.2 1401.80  16
   2  -3   9 29703.7 1321.08  17
  -2   3 -10 8057.48 718.038   4
  -2  -3 -10 6475.23 816.510  16
   2   3  10 7143.22 825.649   2
   2  -3  10 7123.60 701.654  17
  -2  -3 -11 140547. 2094.79   7
   2   3  11 140747. 3624.75   2
  -2  -3 -11 135531. 2214.03  12
  -2   3 -11 142689. 1642.12  12
  -2  -3 -11 131108. 1765.99  15
  -2  -3 -11 139228. 4105.85  16
  -2   3 -11 137947. 1906.04  10
  -2  -3 -11 137745. 1925.06  10
  -2   3 -11 136299. 1869.40   9
   2  -3  11 128430. 3179.64  17
   2   3  12 3788.73 601.015   2
   2  -3  12 3364.21 643.521   2
  -2   3 -12 3298.85 278.503  12
  -2  -3 -12 3524.54 400.798  12
  -2  -3 -12 3444.07 727.276  16
   2  -3  12 2856.71 532.426  17
  -2   3 -12 3847.54 352.071  10
  -2  -3 -12 3729.67 355.828  10
  -2  -3 -12 3302.66 364.747   7
  -2   3 -12 3470.31 351.512   7
  -2   3 -12 2848.28 327.459   9
  -2  -3 -13 66253.4 1549.47  10
  -2   3 -13 65140.8 1523.50  10
  -2   3 -13 64855.0 1564.99   9
  -2   3 -13 63673.4 1565.45   7
  -2  -3 -13 67665.5 1721.90   7
  -2  -3 -13 64254.1 1637.66  12
  -2   3 -13 63355.5 1210.38  12
  -2  -3 -14 252.183 145.842  10
  -2   3 -14 401.536 162.195  10
  -2   3 -14 405.040 148.033   9
  -2   3 -14 238.872 137.234   7
  -2  -3 -14 385.583 207.610   7
  -2   3 -14 314.652 134.316  12
  -2   3 -15 9224.57 470.192  12
  -2   3 -15 9019.49 388.020   9
  -2  -3 -15 9341.72 661.005  10
  -2   3 -15 10151.7 694.320  10
  -2   3 -15 8013.90 599.775   7
  -2  -3 -15 9278.85 710.749   7
  -2  -3 -16 926.820 241.410  10
  -2   3 -16 1613.57 320.004  10
  -2   3 -16 1530.76 215.405  12
  -2  -3 -16 1175.67 275.283   7
  -2   3 -16 680.525 204.132   7
  -2  -3 -17 62940.2 1445.35  10
  -2   3 -17 65910.4 1245.44  10
  -2   3 -17 57545.6 1205.05   7
  -2  -3 -17 60372.8 1263.89   7
  -2  -3 -18 77.0272 70.4454  10
  -2  -3 -18-0.56294 74.4575   7
   2  -4 -18 59649.6 766.199  10
   2   4 -18 62208.2 626.629   9
   2   4 -18 61512.3 749.119   7
   2  -4 -18 61206.3 688.645   7
   2   4 -17 187.463 65.6454   9
   2  -4 -17 99.3220 75.0302  10
   2  -4 -17 18.4788 67.8625   7
   2   4 -17 125.800 81.8907   7
   2  -4 -16 4909.13 376.389  10
   2   4 -16 4950.70 323.442  10
   2   4 -16 5057.50 274.154   9
   2   4 -16 5365.98 350.182   7
   2  -4 -16 5247.27 328.142   7
   2   4 -15 1194.76 164.399   9
   2   4 -15 849.768 172.778  10
   2  -4 -15 1137.74 238.173  10
   2  -4 -15 1099.17 198.506   7
   2   4 -14 63495.4 1198.56   9
   2  -4 -14 64904.6 1839.64  10
   2  -4 -14 63938.0 1478.68   7
   2   4 -13 164.652 290.250  10
   2  -4 -13 73.0209 130.748   7
   2   4 -13-12.8871 122.290   9
   2   4 -13 121.063 67.0434  13
   2  -4 -12 139160. 5634.56  16
   2   4 -12 151386. 1735.06  13
   2   4 -12 168217. 3231.74  10
   2  -4 -12 157966. 3112.63  10
   2  -4 -12 159516. 1972.15   9
   2  -4 -12 147014. 2672.88   7
  -2  -4  12 149022. 4855.03  17
   2   4 -12 151925. 2317.98   9
  -2  -4  12 158901. 4840.93   2
  -2   4  12 165046. 3697.40   2
   2   4 -11 5444.48 357.249  13
   2   4 -11 5201.05 446.206   9
  -2  -4  11 4963.88 789.246   2
  -2   4  11 5369.19 659.198   2
  -2  -4  11 4363.55 777.014  17
   2  -4 -11 2921.60 962.036  16
   2  -4 -11 5826.31 389.699   9
   2   4 -11 5818.37 549.409  10
   2  -4 -11 5681.53 550.630  10
   2  -4 -11 3239.54 466.408   7
  -2  -4  10 85927.5 3007.02  17
   2   4 -10 85070.4 2653.85  18
   2   4 -10 90876.3 1609.03   9
   2  -4 -10 81585.9 4146.15  16
  -2   4  10 85076.9 2522.51   2
  -2  -4  10 89154.3 2888.63   2
   2  -4  -9 6222.29 1048.37  16
   2   4  -9 6811.55 684.389  18
  -2  -4   9 7108.06 777.586  17
  -2   4   9 8705.00 785.074   2
   2  -4  -8 127247. 4133.86  16
   2   4  -8 127428. 2688.88  18
  -2   4   8 126980. 2747.93  17
  -2  -4   8 127806. 2945.44  17
  -2   4   8 130221. 2941.62   2
  -2   4   7 374.673 199.260  17
  -2  -4   7 1094.18 266.343  17
   2  -4  -7 343.226 285.303  16
   2   4  -7 602.503 214.049  18
  -2  -4   7 434.427 186.110  19
  -2   4   7 469.554 175.026   2
  -2   4   6 266655. 4303.07   2
  -2  -4   6 287194. 3674.87  17
   2   4  -6 264245. 3943.84  18
   2  -4  -6 271254. 3261.46   3
   2  -4  -6 282253. 5073.72  16
  -2  -4   6 259478. 3344.03  19
   2   4  -5 11598.0 941.838  18
  -2  -4   5 11786.9 687.534  17
   2  -4  -5 11209.6 631.442   3
  -2  -4   5 11494.8 623.160  19
  -2   4   5 10208.3 946.992   2
  -2   4   4 781.157 348.093   2
  -2   4   4 1047.43 127.292   1
   2   4  -4 1042.88 232.143  18
   2  -4  -4 817.479 160.499   3
  -2  -4   4 940.568 195.835  17
  -2  -4   4 1392.21 211.126  19
  -2  -4   3 35999.6 1018.08  17
   2   4  -3 35635.6 1050.59  18
   2  -4  -3 35145.7 1025.38   3
  -2   4   3 35204.2 758.325   1
  -2  -4   3 35203.5 975.268  19
   2   4  -2 207727. 2293.89  18
  -2  -4   2 208739. 2311.16  17
   2  -4  -2 197482. 2379.85   3
  -2   4   2 199200. 1898.37   1
  -2  -4   2 207881. 2305.15  19
   2   4  -1 2938.72 269.995  18
  -2  -4   1 3304.51 301.719  17
   2  -4  -1 2898.67 299.595   3
  -2  -4   1 3115.90 282.555  19
  -2   4   1 2587.66 293.164   2
  -2   4   1 3054.47 247.174   1
  -2   4   0 368127. 2836.36   1
  -2  -4   0 364522. 3506.67  17
   2   4   0 357831. 2939.71  18
   2  -4   0 376998. 3200.18   3
  -2   4   0 363356. 3259.87   2
  -2  -4   0 365119. 1966.11  16
  -2  -4   0 355177. 2948.31  19
  -2  -4  -1 789.306 150.913  19
   2  -4   1 759.731 153.442   3
   2   4   1 744.713 98.9934   2
  -2  -4  -1 847.370 123.793  16
  -2   4  -1 595.822 131.785   1
   2   4   2 15757.6 485.021   2
  -2   4  -2 16025.5 662.593   1
  -2   4  -2 14727.3 404.587  18
   2  -4   2 15339.5 658.797   3
  -2  -4  -2 16106.8 570.252  16
  -2  -4  -2 15302.9 621.506  19
   2   4   3 72726.3 1259.30   2
  -2   4  -3 70167.9 1489.14   1
  -2   4  -3 67676.0 1187.12  18
   2  -4   3 69117.9 1250.32  19
  -2  -4  -3 71713.3 1357.75  16
  -2  -4  -3 71389.0 1354.56  19
   2  -4   3 68767.9 1352.28   3
  -2   4  -4 361885. 3532.70   1
   2   4   4 357466. 3615.25   2
  -2  -4  -4 361986. 3398.20  16
  -2  -4  -4 362091. 3096.19  19
   2  -4   4 365996. 2775.96  19
   2   4   5 10926.8 852.718   2
  -2   4  -5 10886.4 665.696   1
  -2  -4  -5 11098.7 668.660  16
   2  -4   5 10758.6 668.231  17
  -2  -4  -5 10543.5 540.172  19
   2  -4   5 11817.1 477.092  19
   2  -4   5 10362.5 536.343   3
  -2   4  -6 237831. 3326.72   1
   2  -4   6 230634. 2531.90   3
  -2   4  -6 238037. 3677.02   4
   2  -4   6 230368. 3245.83  17
  -2  -4  -6 236968. 3361.66  16
  -2  -4  -6 234712. 2606.79  19
   2  -4   7 12556.0 596.896   3
  -2   4  -7 14056.6 899.027   4
   2   4   7 14271.6 1489.18   2
  -2   4  -7 13647.5 852.207   1
   2  -4   7 13653.5 831.017  17
  -2  -4  -7 13740.1 900.129  16
  -2   4  -8 2026.11 367.264   1
   2   4   8 1436.10 445.687   2
  -2  -4  -8 1587.05 352.602  16
   2  -4   8 1775.45 331.952  17
  -2   4  -9 20112.1 1125.22   4
  -2  -4  -9 19346.4 1285.38  16
   2   4   9 17740.6 1348.46   2
  -2   4  -9 20942.3 1288.91   1
   2  -4   9 19926.7 1133.26  17
   2  -4  10 66925.7 2218.44  17
  -2  -4 -10 64308.5 1262.06  15
  -2  -4 -10 65030.2 2581.28  16
  -2  -4 -10 66211.4 1353.95   7
  -2   4 -10 69735.9 2149.85   4
  -2  -4 -10 66085.2 1606.23  12
  -2   4 -10 67588.4 1539.31   5
  -2   4 -10 68926.7 1172.95   9
  -2  -4 -11 5868.89 873.195  16
  -2  -4 -11 4756.25 402.302   7
   2   4  11 4826.12 727.907   2
  -2   4 -11 4541.31 303.762  12
  -2  -4 -11 4805.53 494.859  12
   2  -4  11 4217.50 600.368  17
  -2  -4 -11 5179.86 406.592   6
  -2   4 -11 4781.12 474.540   5
  -2   4 -11 4651.74 354.542  10
  -2  -4 -11 4788.77 370.427  10
  -2   4 -11 4867.76 351.845   9
  -2  -4 -12 156631. 4864.75  16
  -2   4 -12 156823. 2256.18   7
  -2  -4 -12 155061. 2426.17   7
   2   4  12 146406. 3850.74   2
  -2   4 -12 154092. 1758.70  12
  -2  -4 -12 152558. 2607.27  12
   2  -4  12 143288. 3685.50  17
  -2  -4 -12 152039. 2398.36   6
  -2   4 -12 153300. 2148.62   9
  -2   4 -12 156267. 2188.07  10
  -2  -4 -12 153116. 2179.37  10
  -2   4 -13 1233.72 214.774  10
  -2  -4 -13 1209.93 218.122  10
  -2   4 -13 1200.87 238.893   9
  -2  -4 -13 857.022 234.248   7
  -2   4 -13 1040.56 217.977   7
  -2   4 -13 1179.39 185.672  12
  -2   4 -14 153.309 158.476   7
  -2  -4 -14-102.953 255.441   7
  -2   4 -14 439.271 147.356   9
  -2   4 -14 25.4299 170.418  12
  -2   4 -14-81.6811 199.679  10
  -2  -4 -14 49.1937 123.706  10
  -2   4 -15 1929.08 202.476  12
  -2  -4 -15 2279.73 335.171  10
  -2   4 -15 2160.46 332.275  10
  -2   4 -15 1910.25 195.765   9
  -2   4 -15 1785.71 293.234   7
  -2  -4 -15 2259.43 379.964   7
  -2  -4 -16 81646.1 1801.18   7
  -2   4 -16 80861.6 966.073   9
  -2  -4 -16 84324.6 1942.42  10
  -2  -4 -17 228.010 104.416   7
  -2  -4 -17 298.306 127.895  10
  -2  -4 -18 36173.2 624.164   7
  -2  -4 -18 35091.0 619.730  10
   2   5 -17 56293.4 847.626   7
   2  -5 -17 55266.3 874.989  10
   2   5 -17 56425.5 724.148   9
   2  -5 -16 6389.21 330.308   7
   2   5 -16 6177.59 352.193   7
   2  -5 -16 5604.89 367.450  10
   2   5 -16 5937.38 283.131   9
   2  -5 -15 2970.81 273.229   7
   2  -5 -15 2725.27 317.467  10
   2   5 -15 2858.19 232.683   9
   2  -5 -14 141.083 103.167   6
   2  -5 -14 64.9482 211.881  10
   2  -5 -14 132.679 121.787   7
   2   5 -14 105.955 111.146   9
   2   5 -14 289.515 81.7565  13
   2  -5 -13 53724.0 1885.65  10
   2  -5 -13 50304.1 1402.51   7
   2   5 -13 51610.0 1251.07   9
   2   5 -13 51295.4 971.178  13
   2  -5 -12 191.335 172.353  10
   2  -5 -12 105.534 152.102   7
   2   5 -12 15.1624 195.197   9
   2   5 -12 42.7044 77.5524  13
  -2  -5  11 75966.2 3197.41  17
   2  -5 -11 70346.1 2012.19   7
   2   5 -11 77195.5 1465.10  13
   2  -5 -11 68052.3 4362.77  16
   2  -5 -11 77869.1 1959.03  10
   2   5 -11 75576.9 1610.89   9
  -2  -5  11 72396.3 2896.92   2
  -2   5  11 81949.7 2675.19   2
  -2  -5  10 7249.56 903.745  17
   2  -5 -10 7055.84 618.417   7
   2   5 -10 7563.27 543.404  13
   2   5 -10 6521.86 491.302   5
  -2  -5  10 7485.43 850.291   2
  -2   5  10 7497.02 804.966   2
   2   5 -10 7251.14 459.860   9
   2  -5 -10 6183.80 1194.42  16
   2  -5 -10 8516.67 590.771  10
   2   5  -9 4768.13 560.436  18
  -2  -5   9 5479.93 719.452  17
  -2   5   9 5136.47 657.077   2
   2  -5  -9 5367.12 994.321  16
  -2  -5   8 67616.2 2217.79  17
   2   5  -8 60475.4 1876.01  18
  -2   5   8 59163.9 2213.65   2
   2  -5  -8 63140.1 3009.29  16
  -2   5   7 293649. 5063.82   2
   2   5  -7 274456. 4012.50  18
  -2  -5   7 290407. 4207.13  17
   2  -5  -7 297425. 5881.96  16
  -2  -5   7 265608. 3906.70  19
   2  -5  -6 5210.50 739.021  16
  -2   5   6 4626.32 718.703   2
  -2  -5   6 5073.35 479.086  19
   2   5  -6 4438.02 591.149  18
  -2  -5   6 5300.23 527.022  17
   2  -5  -6 5316.63 534.603   3
   2  -5  -5 59276.4 2160.04  16
   2   5  -5 55549.9 1962.15  18
  -2  -5   5 58254.8 1586.49  17
  -2  -5   5 51470.5 1385.48  19
   2  -5  -5 56228.2 1633.28   3
  -2   5   4 38564.5 829.068   1
   2   5  -4 37281.4 1307.29  18
  -2  -5   4 36390.5 1166.56  17
  -2  -5   4 37112.3 1120.02  19
   2  -5  -4 37473.6 1274.77   3
  -2   5   3 39752.0 891.180   1
  -2   5   3 40588.2 1557.76   2
  -2  -5   3 41804.1 1158.51  17
   2   5  -3 42298.0 1203.33  18
  -2  -5   3 39563.2 1123.22  19
   2  -5  -3 40186.4 1234.91   3
  -2   5   2 3375.73 402.044   2
  -2   5   2 3555.34 284.060   1
   2   5  -2 3009.09 306.229  18
  -2  -5   2 3676.75 328.030  17
  -2  -5   2 3621.05 335.869  19
   2  -5  -2 3235.71 343.496   3
  -2   5   1 212377. 2288.36   1
  -2  -5   1 216632. 2557.62  19
  -2  -5   1 205170. 2408.45  17
   2   5  -1 212622. 2483.09  18
  -2   5   1 211677. 2867.61   2
   2  -5  -1 219439. 2726.73   3
  -2  -5   0 21250.3 487.261  16
  -2   5   0 20261.8 742.880   1
  -2  -5   0 19181.9 768.422  19
  -2  -5   0 21871.9 911.733  17
   2   5   0 20329.5 784.032  18
   2  -5   0 22079.4 858.361   3
  -2   5   0 20410.5 850.904   2
  -2   5  -1 48046.9 1205.36   1
  -2  -5  -1 50732.1 930.872  16
   2   5   1 47271.5 879.948   2
   2  -5   1 49966.8 1288.22   3
  -2  -5  -2 44583.5 994.734  16
  -2   5  -2 44056.8 1219.32   1
   2   5   2 41353.7 885.805   2
  -2  -5  -2 44110.4 1183.53  19
  -2   5  -2 44381.9 859.625  18
   2  -5   2 43234.8 1208.42   3
  -2  -5  -3 45057.1 1133.02  16
   2   5   3 43736.8 1009.71   2
  -2   5  -3 44284.3 1286.21   1
  -2  -5  -3 44970.9 1216.38  19
   2  -5   3 44118.2 1141.85  19
  -2   5  -3 45727.0 922.041  18
   2  -5   3 43810.0 1223.63   3
   2   5   4 33766.1 1035.91   2
  -2   5  -4 31241.1 1148.92   1
   2  -5   4 32432.8 1128.13  17
  -2  -5  -4 31690.1 1058.61  16
  -2  -5  -4 32560.9 1055.52  19
   2  -5   4 30414.6 924.296  19
   2  -5   4 31669.3 1034.67   3
   2   5   5 491824. 4786.63   2
  -2   5  -5 487166. 4804.26   1
  -2  -5  -5 493961. 4624.57  16
   2  -5   5 501432. 4756.37  17
  -2  -5  -5 493486. 4191.45  19
   2  -5   5 490454. 3621.24  19
  -2   5  -6 103041. 2364.04   1
   2   5   6 119142. 2942.02   2
  -2  -5  -6 106683. 1991.99  19
   2  -5   6 115255. 2380.55  17
  -2  -5  -6 102179. 2311.15  16
  -2   5  -6 108106. 2656.18   4
   2  -5   6 101436. 1883.23   3
  -2   5  -7 103424. 2533.13   1
  -2  -5  -7 99097.6 2487.24  16
   2  -5   7 101165. 2375.30  17
  -2   5  -7 108889. 2660.90   4
   2  -5   7 100208. 1882.24   3
  -2  -5  -8 1630.84 366.197  16
   2  -5   8 1201.94 284.593  17
   2   5   8 1504.50 553.855   2
  -2   5  -8 1309.33 332.131   1
  -2   5  -8 1064.52 269.531   4
   2   5   9 26638.8 2151.75   2
  -2   5  -9 26625.1 1561.12   1
  -2   5  -9 28435.8 1388.54   4
   2  -5   9 25921.0 1348.54  17
  -2  -5  -9 24306.5 1481.24  16
  -2  -5 -10 1730.70 233.225   7
   2   5  10 2702.10 610.157   2
  -2   5 -10 2076.58 193.609  12
  -2  -5 -10 2880.88 467.539  12
  -2   5 -10 2050.13 215.639   9
  -2   5 -10 1959.24 274.844   5
  -2  -5 -10 2035.80 249.242   6
  -2  -5 -10 1749.35 207.026  10
   2  -5  10 2083.29 417.401  17
  -2  -5 -10 1613.95 416.596  16
  -2  -5 -11 130189. 4105.89  16
  -2  -5 -11 128134. 2077.08   7
  -2   5 -11 122761. 1487.93  12
  -2  -5 -11 120813. 2340.58  12
   2  -5  11 123288. 3300.77  17
  -2  -5 -11 126374. 2064.03   6
  -2   5 -11 126085. 2279.97   5
  -2  -5 -11 124778. 1825.97  10
  -2   5 -11 128860. 1745.47   9
  -2   5 -12 404.017 112.961  12
  -2  -5 -12 351.007 139.057  10
  -2  -5 -12 354.777 154.599   6
  -2  -5 -12 270.668 130.732   7
  -2   5 -12 534.665 150.426   9
  -2   5 -13 47644.0 962.892  12
  -2  -5 -13 47827.5 1286.08  10
  -2  -5 -13 48632.3 1482.60   7
  -2   5 -13 46407.2 1271.96   9
  -2  -5 -13 45029.1 1445.22   6
  -2  -5 -14 5327.99 462.767  10
  -2  -5 -14 4891.24 515.287   7
  -2   5 -14 4574.71 417.064   9
  -2  -5 -14 5305.77 519.018   6
  -2  -5 -15 15663.7 802.511  10
  -2  -5 -15 14876.7 897.346   7
  -2   5 -15 14143.7 529.123   9
  -2  -5 -16 9710.37 645.295  10
  -2   5 -16 8658.15 318.177   9
  -2  -5 -16 8772.73 540.250   7
  -2  -5 -17 33522.8 785.232  10
  -2  -5 -17 33832.7 767.285   7
  -2  -5 -18 357.677 62.0383   7
   2  -6 -17 4299.20 195.964  10
   2   6 -17 4544.53 196.709   9
   2  -6 -17 4169.51 171.937   7
   2   6 -17 4458.14 210.216   7
   2  -6 -16 6858.82 351.065  10
   2   6 -16 7322.07 300.046   9
   2  -6 -16 7289.55 304.607   7
   2   6 -16 6978.00 336.987   7
   2  -6 -15 2749.72 288.439  10
   2  -6 -15 3317.33 265.242   7
   2   6 -15 3334.22 244.494   9
   2  -6 -15 2924.20 230.889   6
   2  -6 -14 22975.2 806.711   6
   2  -6 -14 21351.8 942.731  10
   2   6 -14 22408.4 576.468  13
   2  -6 -14 23873.7 791.902   7
   2   6 -14 22404.6 720.663   9
   2   6 -13 114.575 73.0283  13
   2  -6 -13 98.5563 107.624   7
   2   6 -13 100.954 139.351   9
   2  -6 -12 150449. 2903.93  10
   2   6 -12 152826. 1911.86  13
   2   6 -12 154412. 2501.27   9
   2  -6 -12 148340. 2484.90   7
  -2  -6  11-232.798 265.509  17
   2  -6 -11 4.73369 192.066   7
   2   6 -11 30.2707 147.771  13
   2  -6 -11 22.1896 152.708  10
  -2   6  11 187.228 248.746   2
  -2  -6  11-241.543 197.206   2
   2   6 -11 121.595 136.708   9
  -2  -6  10 6193.75 843.459  17
   2  -6 -10 5276.14 1137.71  16
   2  -6 -10 3809.44 473.996   7
   2   6 -10 4540.94 409.401  13
   2   6 -10 4031.58 376.373   5
  -2  -6  10 5053.66 378.572  20
   2  -6 -10 4637.13 436.545  10
   2   6 -10 4383.34 355.557   9
  -2  -6  10 4646.18 681.948   2
  -2   6  10 5183.16 717.271   2
  -2   6   9 13680.3 1189.21   2
   2   6  -9 14481.3 629.076   5
  -2  -6   9 13751.3 1157.30  17
   2   6  -9 13648.5 556.288   9
   2  -6  -9 13912.0 1609.09  16
   2   6  -9 14904.0 641.614  13
   2   6  -8 37344.4 1513.47  18
  -2  -6   8 37764.2 1738.55  17
   2  -6  -8 39884.3 2445.09  16
  -2   6   8 38479.4 2046.95   2
   2   6  -7 1151.50 303.850  18
  -2  -6   7 1846.94 353.353  19
  -2   6   7 1078.47 411.900   2
   2  -6  -7 1103.70 354.472  16
  -2  -6   7 1118.84 296.433  17
   2  -6  -6 326228. 4866.82   3
  -2  -6   6 343063. 4414.71  17
  -2  -6   6 336669. 3999.33  19
   2  -6  -6 344164. 5847.22  16
   2  -6  -5 8453.63 712.603   3
  -2  -6   5 9061.48 668.384  17
   2   6  -5 8644.90 796.324  18
  -2  -6   5 9120.46 625.351  19
  -2   6   5 10699.1 1181.93   2
   2  -6  -5 9832.16 911.005  16
   2  -6  -4 4202.96 480.048   3
   2   6  -4 3585.99 432.950  18
  -2  -6   4 3247.55 380.158  17
  -2  -6   4 3205.34 358.600  19
  -2   6   4 3615.43 586.962   2
  -2   6   4 4298.05 304.524   1
   2  -6  -4 3643.38 511.259  16
  -2  -6   3 9200.41 590.149  17
   2   6  -3 9794.39 621.954  18
  -2  -6   3 8578.40 578.300  19
  -2   6   3 9506.38 488.642   1
  -2   6   3 10406.6 813.254   2
   2  -6  -3 8209.05 629.159   3
  -2  -6   2 85314.6 1687.60  17
   2   6  -2 85985.7 1749.44  18
  -2  -6   2 87450.7 1804.62  19
  -2   6   2 82698.4 1515.62   1
  -2   6   2 87887.4 2120.74   2
   2  -6  -2 86214.4 1959.46   3
  -2  -6   1 8687.71 546.178  17
   2   6  -1 8484.66 552.901  18
  -2  -6   1 8237.40 558.928  19
  -2   6   1 8301.63 498.847   1
  -2   6   1 8092.54 613.014   2
   2  -6  -1 7918.47 585.431   3
   2   6   0 410094. 3872.10  18
  -2   6   0 396149. 3617.28   1
   2  -6   0 416697. 4166.32   3
  -2   6   0 371964. 4014.30   2
  -2  -6   0 377997. 3772.46  19
   2  -6   1 4526.06 436.932   3
  -2  -6  -1 4572.62 428.933  19
  -2   6  -1 4494.84 408.245   1
  -2  -6  -1 4654.62 294.113  16
   2   6   2 11265.0 515.551   2
   2  -6   2 11572.7 690.141   3
  -2   6  -2 10794.8 497.839  18
   2  -6   2 11041.4 650.566  19
  -2   6  -2 10881.1 669.903   1
  -2  -6  -2 11323.3 525.260  16
  -2  -6  -2 11089.3 664.287  19
   2  -6   3 30487.1 1121.70   3
   2   6   3 32150.0 941.624   2
  -2   6  -3 30772.5 1175.86   1
  -2  -6  -3 31063.6 983.484  16
  -2  -6  -3 32191.3 1147.77  19
   2  -6   3 30858.0 1076.12  19
   2  -6   4 93037.3 1970.68   3
   2   6   4 88858.4 1720.22   2
  -2   6  -4 86578.7 2080.10   1
  -2  -6  -4 89647.8 1857.15  16
   2  -6   4 85855.8 2001.59  17
   2  -6   4 88430.8 1781.10  19
  -2  -6  -4 91232.8 1967.46  19
   2  -6   5 38243.3 1281.91   3
   2   6   5 40408.8 1319.46   2
  -2   6  -5 39735.0 1484.51   1
  -2  -6  -5 38565.2 1347.94  16
   2  -6   5 40096.2 1424.78  17
  -2  -6  -5 39858.5 1330.33  19
   2  -6   5 38745.9 1154.21  19
   2  -6   6 484318. 4585.32   3
  -2  -6  -6 517581. 4935.73  19
   2   6   6 516920. 5478.36   2
  -2   6  -6 493453. 5596.97   1
   2  -6   6 511388. 5307.33  17
  -2  -6  -6 497395. 5296.43  16
   2  -6   7 48651.6 1737.28  17
  -2   6  -7 50900.6 1936.78   4
   2  -6   7 50149.1 1461.56   3
   2   6   7 49857.0 2043.97   2
  -2   6  -7 48777.1 1873.34   1
  -2  -6  -7 46694.1 1773.90  16
   2  -6   8 5494.59 625.397  17
  -2  -6  -8 6425.07 719.596  16
  -2   6  -8 7123.44 720.020   4
  -2   6  -8 5741.97 705.034   1
   2   6   8 5676.46 816.183   2
   2   6   9 5012.84 887.228   2
  -2   6  -9 5516.74 773.467   1
   2  -6   9 4310.45 591.783  17
  -2  -6  -9 4860.47 675.319  16
  -2  -6  -9 4910.33 365.688   7
  -2  -6  -9 5518.61 387.333   6
  -2   6  -9 5492.54 394.040   5
  -2   6  -9 5814.52 650.947   4
  -2   6  -9 5005.60 311.007   9
  -2  -6 -10 85453.4 3101.33  16
  -2  -6 -10 86814.4 1645.16   7
  -2   6 -10 89645.0 3399.02   1
  -2   6 -10 85754.3 1202.29  12
  -2   6 -10 91187.9 1383.71   9
  -2   6 -10 88552.9 1703.36   5
  -2  -6 -10 90152.7 1652.71   6
  -2  -6 -10 84411.3 1392.69  10
   2  -6  10 91147.3 2764.50  17
  -2  -6 -11 12233.9 667.944   7
  -2  -6 -11 12508.2 576.457  10
  -2   6 -11 12546.0 715.716   5
  -2  -6 -11 12969.9 677.387   6
  -2   6 -11 11933.9 460.250  12
  -2  -6 -11 11691.2 1279.81  16
   2  -6  11 11240.0 1045.56  17
  -2   6 -11 12965.9 564.677   9
  -2  -6 -12 45342.7 1155.29  10
  -2   6 -12 47900.3 1151.97   9
  -2  -6 -12 45722.6 1368.88   7
  -2  -6 -12 45543.5 1366.36   6
  -2  -6 -13 1274.48 216.755  10
  -2   6 -13 1324.83 236.398   9
  -2  -6 -13 1446.30 298.667   7
  -2  -6 -13 1664.71 303.912   6
  -2  -6 -14 2976.65 336.281  10
  -2   6 -14 3174.29 362.102   9
  -2  -6 -14 2876.66 404.394   7
  -2  -6 -14 2999.64 403.669   6
  -2  -6 -15 11016.3 645.203  10
  -2  -6 -15 9378.66 632.995   7
  -2  -6 -15 10527.6 475.478   6
  -2   6 -15 10271.7 450.243   9
  -2   6 -16 29802.7 565.716   9
  -2  -6 -16 29515.9 876.968  10
  -2  -6 -16 30296.7 852.044   7
  -2  -6 -17 138.472 71.2525   7
   2   7 -17 23282.7 388.730   9
   2   7 -16 12980.0 370.834   9
   2   7 -16 12101.1 382.895   7
   2  -7 -15 1488.99 177.676  10
   2   7 -15 1788.03 172.535   9
   2  -7 -15 1473.39 148.964   7
   2  -7 -15 1671.42 179.428   6
   2  -7 -14 884.531 154.403   7
   2   7 -14 781.372 117.333  13
   2   7 -14 631.954 156.546   9
   2  -7 -14 579.479 155.496  10
   2  -7 -14 666.011 154.994   6
   2  -7 -13 62667.3 1296.00   7
   2   7 -13 60682.1 1058.44  13
   2   7 -13 60838.3 1377.54   9
   2  -7 -13 60901.6 1709.07  10
   2  -7 -13 61947.0 1558.21   6
   2   7 -12 231.973 110.974  13
   2   7 -12 193.055 165.166   9
   2  -7 -12 252.280 154.395   7
   2   7 -11 59602.3 1495.30  13
   2   7 -11 60526.3 1527.90   5
   2   7 -11 58097.8 1378.53   9
  -2  -7  11 57913.3 1394.73  20
  -2  -7  10 20528.2 763.405  20
  -2   7  10 19220.6 1516.88   2
   2   7 -10 20053.4 830.551  13
   2   7 -10 20273.6 815.387   5
  -2  -7  10 19172.4 1570.76  17
   2   7 -10 21119.8 764.342   9
   2  -7 -10 20473.0 2201.02  16
  -2  -7   9 28670.2 820.137  20
  -2   7   9 32066.1 2037.72   2
   2   7  -9 27199.2 868.803  13
   2   7  -9 29072.0 883.959   5
  -2  -7   9 27549.5 1747.71  17
   2   7  -9 28789.5 818.691   9
   2  -7  -9 27522.4 2291.08  16
   2   7  -8 2714.43 251.558  13
   2   7  -8 2571.80 245.430   5
  -2   7   8 2865.74 636.452   2
   2   7  -8 2599.46 240.898   9
  -2  -7   8 2506.87 236.459  20
   2  -7  -8 3581.99 769.281  16
  -2  -7   8 2576.83 503.989  17
  -2   7   7 135484. 5254.42   2
   2  -7  -7 139573. 4178.85  16
  -2  -7   7 136354. 2928.64  19
   2   7  -7 138188. 3228.60  18
  -2  -7   7 131404. 3194.46  17
  -2   7   6 2460.15 677.545   2
   2  -7  -6 1848.50 463.710  16
  -2  -7   6 2259.76 362.182  19
  -2  -7   6 2464.29 415.020  17
   2   7  -6 2749.55 601.192  18
   2  -7  -5 184556. 3789.39   3
   2  -7  -5 185741. 3949.59  16
  -2  -7   5 184436. 3043.73  19
   2   7  -5 181857. 3763.29  18
  -2  -7   5 171184. 3132.09  17
   2  -7  -4 46410.3 1770.62   3
   2  -7  -4 45922.2 1804.84  16
  -2  -7   4 41827.9 1412.59  19
   2   7  -4 46002.4 1592.95  18
  -2  -7   4 46392.1 1520.92  17
   2  -7  -3 1340.48 306.406   3
  -2   7   3 915.227 259.063   2
  -2   7   3 1414.06 211.299   1
   2  -7  -3 1382.83 285.423  16
  -2  -7   3 2453.29 347.232  19
   2   7  -3 1981.56 317.609  18
  -2  -7   3 1968.02 302.918  17
  -2   7   2 51897.5 1749.12   2
   2  -7  -2 45928.2 1590.79   3
  -2  -7   2 48055.6 1479.36  19
  -2   7   2 46256.5 1233.55   1
  -2  -7   2 48562.7 1434.26  17
   2   7  -2 47447.2 1423.70  18
  -2   7   1 364565. 4464.73   2
   2  -7  -1 365452. 4363.80   3
  -2   7   1 367699. 3629.66   1
   2   7  -1 374290. 3959.14  18
   2  -7   0 6226.04 582.382   3
  -2  -7   0 6279.70 545.866  19
  -2   7   0 6287.93 505.049   1
   2   7   0 5860.51 514.724  18
   2  -7   1 192882. 3105.14   3
  -2  -7  -1 188947. 2983.56  19
  -2   7  -1 195839. 2531.14  18
   2   7   1 187552. 2933.23  18
   2   7   2 29463.9 921.706   2
   2  -7   2 29214.1 1207.35   3
  -2   7  -2 27113.0 1139.07   1
  -2  -7  -2 27247.6 850.021  16
  -2  -7  -2 27532.5 1151.13  19
  -2   7  -2 27373.1 892.773  18
  -2   7  -3 77372.3 2027.60   1
   2  -7   3 81770.4 1929.88  17
  -2  -7  -3 79039.4 1636.25  16
   2  -7   3 81726.0 1927.19  19
  -2  -7  -3 75525.7 1944.67  19
   2  -7   3 80386.2 2011.11   3
   2   7   3 79632.6 1609.04   2
   2   7   4 57745.1 1468.88   2
  -2   7  -4 53392.8 1758.73   1
   2  -7   4 53740.4 1656.08  17
  -2  -7  -4 53713.4 1496.17  16
   2  -7   4 50312.1 1505.05  19
  -2  -7  -4 54949.3 1692.69  19
   2  -7   4 53836.2 1649.60   3
  -2   7  -5 122179. 2806.99   1
   2   7   5 119119. 2309.87   2
   2  -7   5 123169. 2632.57  17
  -2  -7  -5 118567. 2446.96  16
   2  -7   5 124859. 2315.11  19
  -2  -7  -5 115192. 2510.90  19
   2  -7   5 130605. 2579.93   3
   2  -7   6 2921.77 395.576   3
  -2   7  -6 2973.40 497.881   1
  -2  -7  -6 3136.36 440.041  16
  -2  -7  -6 3207.81 436.928  19
   2  -7   6 2692.26 416.903  17
  -2   7  -7 191128. 4023.73   1
   2  -7   7 194460. 3614.08  17
  -2  -7  -7 188506. 3669.40  16
  -2   7  -7 190242. 3982.70   4
   2  -7   7 189814. 3077.75   3
  -2   7  -8 257.486 156.709   4
  -2  -7  -8 567.326 142.271   6
  -2   7  -8 509.939 135.252   5
  -2   7  -8 495.055 293.576   1
  -2  -7  -8 396.509 227.324  16
   2  -7   8 222.170 150.975  17
  -2   7  -8 627.440 132.861   9
  -2  -7  -8 398.529 129.100   7
  -2  -7  -9 33611.5 986.437   7
  -2   7  -9 34727.3 981.012   5
  -2  -7  -9 34055.7 990.578   6
  -2   7  -9 31820.2 1938.14   1
  -2  -7  -9 31935.8 1788.98  16
  -2   7  -9 33791.8 830.576   9
   2  -7   9 31065.6 1606.28  17
  -2  -7 -10 261.714 128.674   7
   2  -7  10 367.854 225.402  17
  -2  -7 -10 565.033 306.781  16
  -2   7 -10 667.790 136.078   9
  -2   7 -10 584.884 164.287   5
  -2  -7 -10 502.868 152.547   6
  -2   7 -11 90362.0 1482.01   9
  -2  -7 -11 88311.4 1808.58   7
  -2  -7 -11 89945.9 1808.44   6
  -2   7 -11 86844.1 1826.24   5
  -2   7 -12 931.743 188.303   9
  -2  -7 -12 929.635 233.794   7
  -2   7 -12 1016.82 250.360   5
  -2  -7 -12 878.837 226.775   6
  -2  -7 -13 17867.6 738.239  10
  -2   7 -13 18934.4 765.702   9
  -2  -7 -13 18586.6 933.596   7
  -2  -7 -13 17535.9 895.885   6
  -2  -7 -14 19378.2 784.506  10
  -2   7 -14 19741.6 832.684   9
  -2  -7 -14 18040.4 941.584   7
  -2  -7 -14 18874.5 919.534   6
  -2  -7 -15 9738.47 437.901   6
  -2  -7 -15 8882.21 518.113   7
  -2   7 -15 9099.92 410.758   9
  -2   7 -16 2941.49 171.094   9
  -2  -7 -16 3163.89 235.510   7
  -2  -7 -17 22391.4 399.052   7
   2   8 -16 12101.2 317.912   9
   2   8 -15 4787.48 251.954   9
   2   8 -15 4552.71 254.865   7
   2  -8 -15 4977.90 270.847   6
   2   8 -14 15035.7 533.987   9
   2   8 -14 14010.1 416.922  13
   2  -8 -14 14867.8 598.388   6
   2   8 -13 1297.63 236.033   9
   2   8 -13 1303.39 164.101  13
   2  -8 -13 1625.36 278.401   6
   2   8 -12 116193. 2099.13   9
   2   8 -12 111068. 1666.97  13
   2   8 -11 7154.03 543.715  13
  -2  -8  11 6833.74 484.338  20
   2   8 -11 6860.53 487.309   9
   2   8 -11 6815.62 513.752   5
   2   8 -10 15339.1 725.918  13
   2   8 -10 16331.4 725.831   5
   2   8 -10 17138.1 699.210   9
  -2  -8  10 15765.3 681.990  20
  -2  -8   9 11474.0 540.615  20
  -2   8   9 9910.23 1283.67   2
   2   8  -9 11489.4 572.436  13
   2   8  -9 10606.3 542.083   5
  -2  -8   9 10895.0 1154.75  17
   2   8  -9 12515.5 556.636   9
   2  -8  -9 12078.3 1515.53  16
  -2  -8   8 42074.4 961.815  20
  -2   8   8 43595.5 3090.21   2
   2   8  -8 43637.1 1016.73  13
   2   8  -8 41630.3 979.604   5
   2  -8  -8 41718.1 2341.01  19
  -2  -8   8 41680.1 2092.01  17
   2   8  -8 43072.9 959.327   9
   2  -8  -8 40721.2 2548.87  16
  -2  -8   7 4662.04 570.265  19
  -2  -8   7 5215.59 329.560  20
  -2   8   7 5083.38 1135.47   2
  -2   8   7 5190.44 382.498  13
   2   8  -7 4935.46 324.290  13
   2   8  -7 4815.44 319.994   5
   2  -8  -7 5093.44 763.488  19
  -2  -8   7 5166.48 694.387  17
   2   8  -7 4672.92 305.201   9
   2  -8  -7 4718.94 793.681  16
   2  -8  -6 156449. 3916.54  19
   2   8  -6 160943. 4497.72  18
  -2  -8   6 153912. 3461.73  17
   2   8  -6 151855. 1676.00  13
  -2  -8   6 167006. 3221.93  19
   2  -8  -6 162657. 4118.88  16
   2  -8  -5 51978.6 2231.63   3
  -2   8   5 56056.5 2661.38   2
  -2  -8   5 50256.2 1731.71  19
   2  -8  -5 51423.3 2091.32  16
   2   8  -5 53061.4 2159.04  18
  -2  -8   5 50026.6 1864.62  17
  -2   8   4 41703.0 1992.25   2
   2  -8  -4 42712.5 1870.30   3
  -2  -8   4 42589.5 1611.67  17
   2   8  -4 40602.2 1634.90  18
  -2  -8   4 42548.4 1555.83  19
   2  -8  -4 43434.3 1751.09  16
  -2   8   3 59109.9 2167.45   2
   2  -8  -3 61679.4 2137.13   3
  -2   8   3 59657.5 1443.70   1
   2   8  -3 55534.0 1745.74  18
  -2  -8   3 61058.2 1833.41  19
   2  -8  -3 61864.4 1885.75  16
  -2   8   2 159496. 3359.32   2
   2  -8  -2 163711. 3377.00   3
  -2   8   2 161863. 2510.39   1
   2   8  -2 165219. 2888.96  18
   2  -8  -2 168351. 3412.07  19
  -2  -8   2 168742. 3036.91  19
   2  -8  -2 168892. 2817.33  16
  -2   8   1 31257.1 1162.99   1
   2   8  -1 29013.9 1211.21  18
   2  -8  -1 31110.8 1435.20  19
  -2  -8   1 31002.3 1301.79  19
  -2   8   1 31288.8 1417.43   2
   2  -8  -1 30307.8 1414.95   3
  -2   8   0 201878. 3081.49   1
   2  -8   0 206935. 3595.63  19
   2   8   0 213924. 3309.17  18
   2  -8   0 208576. 3597.43   3
   2  -8   1 6807.56 667.879   3
  -2   8  -1 6708.19 594.754   1
   2   8   1 6572.31 604.541  18
  -2   8  -1 7197.95 543.003  18
  -2  -8  -1 6631.53 620.404  19
   2  -8   1 6227.52 611.267  19
   2  -8   1 6117.53 516.031  17
   2  -8   2 68.6813 119.517   3
  -2  -8  -2 266.670 143.664  19
  -2   8  -2 460.508 178.664   1
   2  -8   2 86.0041 113.539  17
   2  -8   3 10886.8 819.808   3
   2  -8   3 11074.4 776.100  19
  -2  -8  -3 11441.1 831.537  19
  -2   8  -3 9989.83 799.107   1
   2  -8   3 11104.0 764.776  17
   2  -8   4 90774.4 2324.95   3
  -2   8  -4 88169.9 2443.70   1
  -2  -8  -4 88776.9 2359.36  19
   2  -8   4 87312.1 2169.05  19
   2  -8   4 91627.2 2256.45  17
   2  -8   5 22353.1 1168.33   3
   2  -8   5 21017.3 1136.29  17
  -2   8  -5 21061.3 1266.23   1
   2  -8   5 22901.1 1086.72  19
  -2  -8  -5 22891.2 1225.77  19
  -2  -8  -5 21725.5 1087.84  16
   2  -8   6 139853. 2898.49   3
  -2  -8  -6 147081. 1794.07   6
  -2   8  -6 155577. 1774.60   5
   2  -8   6 147759. 3141.34  17
  -2   8  -6 148937. 3557.06   1
  -2  -8  -6 148247. 3204.69  19
  -2  -8  -6 147042. 3068.93  16
   2  -8   7 35206.8 790.940  20
  -2   8  -7 34956.2 1837.60   1
  -2  -8  -7 33148.1 1581.74  16
  -2  -8  -7 34788.4 921.478   7
  -2   8  -7 33071.0 782.938  13
  -2   8  -7 33699.1 868.477   5
  -2  -8  -7 33871.6 907.639   6
   2  -8   7 33071.7 1560.89  17
  -2   8  -7 33016.4 1745.48   4
  -2   8  -7 33725.1 826.665   9
   2  -8   8 6239.53 719.252  17
  -2  -8  -8 6552.96 430.094   7
  -2   8  -8 5849.87 345.579  13
  -2   8  -8 6356.17 407.447   5
  -2  -8  -8 5720.77 398.635   6
  -2  -8  -8 5704.43 720.306  16
  -2   8  -8 5483.33 794.505   1
  -2   8  -8 5530.47 347.582   9
   2  -8   8 6016.44 333.572  20
   2  -8   9 4673.90 642.963  17
  -2  -8  -9 5238.79 756.055  16
  -2  -8  -9 4857.38 398.878   7
  -2   8  -9 5374.00 397.440   5
  -2  -8  -9 4876.57 392.265   6
  -2   8  -9 4852.40 334.179  13
  -2   8  -9 5007.25 812.606   1
  -2   8  -9 4878.25 329.767   9
   2  -8   9 4486.68 290.152  20
  -2   8 -10 118049. 1742.11  13
  -2   8 -10 121541. 1659.19   9
  -2  -8 -10 120512. 2030.87   7
  -2  -8 -10 120152. 1993.92   6
  -2   8 -11 7541.92 439.890   9
  -2  -8 -11 8350.12 577.825   7
  -2   8 -11 7758.88 549.286   5
  -2  -8 -11 7250.67 529.798   6
  -2   8 -12 48295.0 1129.07   9
  -2  -8 -12 45532.7 1394.98   7
  -2   8 -12 46055.3 1379.08   5
  -2  -8 -12 46252.9 1379.94   6
  -2   8 -13 1617.58 230.858   9
  -2  -8 -13 1729.78 303.847   7
  -2  -8 -13 1412.91 278.551   6
  -2   8 -14 75.4350 143.161   9
  -2  -8 -14 16.9021 160.014   7
  -2  -8 -14 209.536 139.128   6
  -2  -8 -15 4240.87 291.170   7
  -2  -8 -15 4354.91 272.652   6
  -2   8 -15 4239.61 259.543   9
  -2   8 -16 23996.5 416.914   9
  -2  -8 -16 25798.5 489.873   7
   2   9 -16 2903.41 133.502   9
   2   9 -15 212.198 70.7300   9
   2  -9 -15 79.5025 63.3448   6
   2   9 -14 15441.6 489.853   9
   2   9 -14 15260.1 397.081  13
   2  -9 -14 15883.4 561.535   6
   2   9 -13 59563.9 1170.37   9
   2   9 -13 58277.6 945.726  13
   2  -9 -13 59570.7 1357.36   6
   2   9 -12 485.218 138.619  13
  -2  -9  12 474.793 130.699  20
   2   9 -12 633.486 216.889   9
   2  -9 -12 336.809 194.248   6
   2   9 -11 39777.4 1227.95  13
  -2  -9  11 36561.6 1112.08  20
   2   9 -11 37973.6 1109.62   9
   2   9 -11 40677.7 1205.11   5
   2   9 -10 40589.0 1177.00  13
  -2  -9  10 42786.4 1132.87  20
   2   9 -10 42316.7 1095.39   9
   2   9 -10 43185.4 1166.59   5
   2   9  -9 1902.79 245.883  13
   2   9  -9 1974.13 243.968   5
   2   9  -9 1539.69 216.686   9
  -2  -9   9 1488.00 216.218  20
  -2  -9   8 1231.73 188.743  20
  -2   9   8 976.834 543.336   2
   2   9  -8 638.928 139.297   5
   2  -9  -8 109.590 324.739  16
   2  -9  -8 1.25393 341.022  19
   2   9  -8 970.217 168.406   9
  -2   9   8 649.868 163.468  13
   2   9  -8 1025.53 181.074  13
  -2   9   7 87293.2 4433.17   2
   2   9  -7 85989.6 1386.35  13
  -2   9   7 86645.4 1572.28  13
   2   9  -7 86055.6 1355.38   5
   2   9  -7 82100.2 1293.47   9
   2  -9  -7 82795.5 3252.85  16
  -2  -9   7 87443.1 1379.97  20
   2  -9  -7 85036.7 3331.07  19
  -2  -9   6 3328.73 267.387  20
  -2   9   6 3731.26 843.633   2
   2   9  -6 3186.91 253.147   5
   2  -9  -6 2396.40 504.949  16
  -2  -9   6 2704.71 439.245  19
   2   9  -6 2955.50 245.367   9
  -2   9   6 3343.33 304.290  13
   2   9  -6 3206.41 262.382  13
  -2   9   5 91163.4 3493.33   2
   2  -9  -5 91213.9 3233.63   3
   2   9  -5 94856.6 1279.52   5
  -2   9   5 83237.1 1426.83  13
   2   9  -5 85404.9 1269.67  13
  -2  -9   5 91836.1 1326.97  20
  -2  -9   5 89089.5 2467.36  19
   2  -9  -5 91545.2 2794.10  16
   2   9  -5 93476.1 3099.96  18
   2  -9  -5 88096.1 3008.29  19
   2   9  -4 19070.8 1204.88  18
   2  -9  -4 17203.0 1277.75  19
   2  -9  -4 20164.8 1414.75   3
  -2   9   4 18764.7 1390.75   2
  -2  -9   4 19253.5 593.163  20
  -2  -9   4 18898.6 1124.95  19
   2   9  -4 20085.8 597.496  13
   2   9  -3 17439.6 1069.15  18
   2  -9  -3 19058.3 1297.30  19
  -2  -9   3 17348.1 1071.42  19
   2  -9  -3 17970.5 1293.93   3
  -2   9   3 18627.3 1284.56   2
  -2   9   2 61009.5 1677.22   1
   2  -9  -2 60568.0 2249.11  19
   2   9  -2 60550.3 1917.69  18
  -2  -9   2 57579.8 1923.56  19
  -2   9   2 63317.0 2237.40   2
   2  -9  -2 63194.9 2290.06   3
  -2   9   1 136696. 2627.92   1
   2   9  -1 140121. 2872.98  18
   2  -9  -1 154854. 3470.32  19
  -2  -9   1 150539. 3117.65  19
   2  -9  -1 151576. 3451.73   3
  -2   9   0 8814.20 700.160   1
  -2   9   0 9726.23 728.580  18
   2   9   0 8337.63 721.743  18
   2  -9   0 9278.78 831.178  19
  -2  -9   0 10153.9 817.314  19
   2  -9   0 9101.76 833.140   3
  -2   9  -1 33648.8 1423.06   1
   2   9   1 33296.0 1463.66  18
  -2  -9  -1 35676.5 1540.70  19
   2  -9   1 33940.8 1545.84  19
   2  -9   1 35674.3 1635.74   3
  -2   9  -2 35223.9 1529.13   1
   2   9   2 35970.6 1567.78  18
   2  -9   2 35017.6 1600.49   3
   2  -9   2 37994.6 1599.21  19
  -2  -9  -2 38411.0 1621.10  19
   2  -9   3 5868.51 631.225  19
  -2  -9  -3 5640.11 643.816  19
  -2   9  -3 5678.80 647.264   1
   2  -9   3 5729.40 577.110  17
   2  -9   3 5424.89 627.617   3
  -2   9  -4 5220.06 318.828  13
  -2   9  -4 4855.76 319.340   5
   2  -9   4 4399.68 533.635  17
  -2   9  -4 5291.11 655.784   1
   2  -9   4 4893.83 566.768  19
   2  -9   4 4999.42 310.137  20
  -2  -9  -4 4999.68 618.876  19
   2  -9   4 4537.60 573.425   3
  -2  -9  -5 101578. 1484.42   7
  -2   9  -5 97384.6 1363.09  13
  -2  -9  -5 98645.6 1446.33   6
  -2   9  -5 102870. 1472.26   5
   2  -9   5 98942.1 2580.15  17
  -2   9  -5 98410.2 2913.47   1
   2  -9   5 93518.7 2590.65   3
   2  -9   5 92206.5 1326.29  20
   2  -9   5 100901. 2478.95  19
  -2  -9  -5 100228. 2774.63  19
  -2  -9  -6 1778.78 215.829   7
  -2   9  -6 1703.43 186.063  13
  -2   9  -6 1824.35 212.034   5
  -2  -9  -6 1683.33 211.984   6
  -2  -9  -6 1490.73 363.502  19
  -2   9  -6 1665.88 423.452   1
   2  -9   6 1745.24 188.263  20
   2  -9   6 1862.62 394.132  17
   2  -9   7 48426.0 1952.94  17
  -2  -9  -7 51071.3 1156.61   7
  -2   9  -7 50332.9 1002.32  13
  -2  -9  -7 51376.9 1145.86   6
  -2   9  -7 53646.7 1137.08   5
  -2   9  -7 51080.3 1033.74   9
  -2   9  -7 50136.9 2333.54   1
  -2   9  -7 52405.0 2289.43   4
   2  -9   7 48236.0 972.288  20
  -2   9  -8 11852.8 510.232   9
  -2   9  -8 12609.1 520.729  13
  -2   9  -8 12827.9 589.080   5
  -2  -9  -8 12852.0 605.193   6
  -2  -9  -8 13039.1 620.197   7
  -2   9  -8 11893.9 1215.76   1
   2  -9   8 10537.8 954.847  17
   2  -9   8 12039.9 488.888  20
  -2   9  -9 84805.1 1388.91  13
  -2   9  -9 86735.4 1386.73   9
   2  -9   9 86798.8 1282.89  20
  -2  -9  -9 85230.0 1613.45   6
  -2  -9  -9 86996.7 1679.30   7
  -2   9 -10 2561.48 275.339  13
  -2   9 -10 2802.85 321.595   5
  -2  -9 -10 2672.91 319.652   6
   2  -9  10 2642.51 233.093  20
  -2   9 -10 2751.27 265.887   9
  -2  -9 -10 2375.20 305.717   7
  -2   9 -11 89057.6 1458.57   9
  -2  -9 -11 88586.9 1862.09   7
  -2  -9 -11 90447.6 1815.76   6
  -2   9 -11 89212.9 1794.09   5
  -2   9 -12 4217.53 346.406   9
  -2  -9 -12 4236.59 434.969   7
  -2   9 -12 4613.71 436.025   5
  -2  -9 -12 4775.01 451.113   6
  -2   9 -13 12078.8 578.615   9
  -2  -9 -13 11614.9 638.518   7
  -2  -9 -13 11731.4 702.129   6
  -2   9 -14 4444.97 335.763   9
  -2  -9 -14 4413.25 300.256   7
  -2  -9 -14 4392.25 363.259   6
  -2   9 -15 6519.86 274.736   9
  -2  -9 -15 6371.97 256.914   7
  -2  -9 -15 6784.36 286.032   6
  -2  10  15 4960.93 198.956   5
   2 -10 -15 5019.35 195.500   6
   2  10 -15 5056.30 187.256   9
   2  10 -14 21930.8 489.680   9
   2 -10 -14 22122.6 575.701   6
  -2  10  14 20716.0 543.534   5
   2  10 -13 4573.96 291.377   9
  -2  10  13 5273.53 347.288   5
   2 -10 -13 4768.14 351.326   6
   2  10 -13 4335.06 238.589  13
   2  10 -12 53994.0 1217.72   9
  -2 -10  12 55696.4 1028.09  20
   2  10 -12 53809.2 1024.26  13
   2  10 -11 18596.7 768.803   9
   2  10 -11 18836.2 793.163   5
  -2 -10  11 18791.3 785.081  20
   2  10 -11 18600.9 780.266  13
   2  10 -10 20112.6 760.188   9
   2  10 -10 21378.3 811.092   5
  -2 -10  10 21281.3 804.776  20
   2  10 -10 21486.2 852.242  13
   2  10  -9 9774.69 508.923   9
   2  10  -9 9204.85 507.690   5
  -2 -10   9 10444.0 546.840  20
   2  10  -9 9611.00 541.066  13
   2  10  -8 49579.4 1077.15   9
   2  10  -8 52458.3 1131.59   5
  -2 -10   8 53619.0 1163.04  20
   2  10  -8 52680.3 1175.31  13
  -2  10   8 52563.7 1308.73  13
   2  10  -7 2931.03 259.431   9
   2  10  -7 3007.87 271.243   5
  -2 -10   7 2752.61 263.951  20
  -2  10   7 2969.20 314.729  13
   2  10  -7 2831.41 266.756  13
   2  10  -6 109965. 1556.78  13
  -2  10   6 106765. 1719.97  13
   2  10  -6 104220. 1450.24   5
  -2  10   6 110377. 2168.61   5
   2  10  -6 104860. 1431.13   9
  -2  10   6 114065. 4438.08   2
  -2 -10   6 106349. 2945.27  19
  -2 -10   6 111002. 1563.96  20
   2 -10  -6 108199. 3713.73  19
   2  10  -5 2745.10 243.056  13
  -2  10   5 2580.32 272.973  13
   2  10  -5 2685.74 231.787   5
  -2  10   5 2710.44 321.653   5
   2  10  -5 2773.06 236.406   9
  -2  10   5 3291.56 651.390   2
   2 -10  -5 3054.35 587.478  19
  -2 -10   5 2643.94 471.700  19
  -2 -10   5 2526.76 242.308  20
  -2  10   4 13300.6 1249.01   2
  -2  10   4 11958.7 608.503   5
   2  10  -4 12106.8 468.484   5
   2  10  -4 12716.8 506.157  13
  -2  10   4 12901.5 568.799  13
  -2 -10   4 12514.5 514.644  20
   2 -10  -4 12808.8 1178.32  19
  -2 -10   4 12786.3 993.242  19
  -2  10   3 37359.2 954.279  13
   2  10  -3 36037.3 830.132  13
   2 -10  -3 40408.9 2085.21   3
   2  10  -3 41297.3 1783.46  18
   2  10  -3 36225.6 786.502   5
  -2  10   3 37023.0 1008.05   5
   2 -10  -3 39877.4 1998.26  19
  -2 -10   3 40012.9 889.686  20
  -2 -10   3 35619.4 1645.11  19
   2 -10  -3 37509.2 910.967  20
   2  10  -2 46010.8 920.174  13
  -2  10   2 43082.8 1004.67  13
  -2  10   2 45046.8 1065.33   5
   2  10  -2 45105.1 861.080   5
   2  10  -2 44335.2 1774.89  18
  -2 -10   2 45497.1 939.703  20
   2 -10  -2 43440.4 971.470  20
  -2 -10   2 43037.2 1793.14  19
   2 -10  -2 44298.1 2031.81  19
   2  10  -1 8218.40 387.954  13
  -2  10   1 8189.40 434.574  13
  -2  10   1 8100.99 443.914   5
   2 -10  -1 8375.89 898.842   3
  -2  10   1 7589.45 665.958   1
   2  10  -1 8560.55 776.605  18
  -2 -10   1 8128.33 395.491  20
  -2 -10   1 7550.24 757.797  19
   2 -10  -1 7937.75 420.535  20
   2 -10  -1 7424.70 827.630  19
  -2  10   0 121177. 1633.71  13
   2  10   0 122185. 1472.80  13
  -2  10   0 124227. 1692.82   5
   2 -10   0 119054. 3291.64   3
  -2  10   0 120733. 2776.25   1
   2  10   0 119612. 2893.02  18
  -2 -10   0 123179. 1505.73  20
   2 -10   0 124280. 3266.07  19
   2 -10   0 118272. 1594.84  20
  -2  10  -1 46486.1 1002.08  13
   2  10   1 45557.2 896.201  13
  -2  10  -1 47215.2 1027.42   5
   2 -10   1 49553.7 2064.14   3
  -2  10  -1 45682.0 1778.85   1
   2  10   1 46192.8 1848.33  18
   2 -10   1 41864.9 1852.05  19
   2 -10   1 45544.3 976.113  20
  -2 -10  -1 44797.3 1854.56  19
  -2  10  -2 20013.3 655.839  13
  -2  10  -2 20739.2 678.033   5
   2 -10   2 22851.0 1393.56   3
  -2  10  -2 20147.7 1230.79   1
   2  10   2 21119.7 1286.85  18
   2 -10   2 20237.0 651.912  20
  -2 -10  -2 19522.9 1240.16  19
   2 -10   2 20932.6 1293.60  19
  -2  10  -3 614.244 136.588  13
  -2  10  -3 525.495 125.629   5
  -2 -10  -3 640.751 121.684   6
   2 -10   3 835.481 243.470   3
  -2  10  -3 516.114 212.344   1
   2 -10   3 698.159 137.567  20
   2  10   3 402.522 192.457  18
  -2 -10  -3 609.673 236.851  19
   2 -10   3 937.359 300.770  19
  -2 -10  -4 82155.8 1290.59   6
  -2  10  -4 83496.4 1365.88   5
   2  10   4 80933.5 2686.70  18
  -2  10  -4 81463.8 2682.32   1
   2 -10   4 83054.0 2470.71  19
   2 -10   4 78440.7 1282.40  20
  -2 -10  -4 86252.1 2690.60  19
  -2  10  -4 80165.3 1302.51  13
  -2  10  -5 279.089 95.1757  13
  -2 -10  -5 549.593 123.350   6
  -2  10  -5 321.925 118.815   5
  -2 -10  -5 319.425 130.598   7
  -2  10  -5 509.121 282.380   1
   2 -10   5 353.645 116.803  20
  -2 -10  -5 211.301 181.107  19
  -2 -10  -6 54432.2 1212.86   7
  -2 -10  -6 55074.7 1148.00   6
  -2  10  -6 52078.9 1119.23   5
  -2  10  -6 52252.9 1053.43  13
  -2  10  -6 53802.4 2387.56   1
  -2  10  -6 53556.8 1083.53   9
   2 -10   6 53458.4 1056.75  20
  -2  10  -7 28533.9 784.684  13
  -2 -10  -7 28242.8 913.399   7
  -2 -10  -7 26424.4 833.627   6
  -2  10  -7 27906.9 846.386   5
  -2  10  -7 27576.5 782.238   9
   2 -10   7 25547.2 727.378  20
  -2  10  -8 569.814 138.444  13
  -2 -10  -8 458.304 176.080   7
  -2 -10  -8 657.048 161.871   6
  -2  10  -8 792.919 179.267   5
  -2  10  -8 638.420 147.819   9
   2 -10   8 620.490 129.612  20
  -2  10  -9 41675.7 985.424  13
  -2 -10  -9 41506.8 1196.94   7
  -2  10  -9 42739.7 1111.39   5
  -2 -10  -9 41505.3 1122.84   6
  -2  10  -9 41492.6 957.915   9
   2 -10   9 39871.4 889.793  20
  -2  10 -10 83783.9 1460.20  13
  -2 -10 -10 81784.0 1740.08   7
  -2 -10 -10 85071.0 1658.95   6
  -2  10 -10 87737.9 1652.04   5
  -2  10 -10 84464.7 1377.53   9
   2 -10  10 83118.1 1271.04  20
  -2 -10 -11 1286.44 252.067   7
  -2 -10 -11 1704.68 270.609   6
  -2  10 -11 1664.54 265.727   5
  -2  10 -11 1719.70 225.537   9
  -2  10 -11 1486.21 218.178  13
  -2  10 -12 49235.2 1076.64   9
  -2 -10 -12 45817.2 1184.97   7
  -2 -10 -12 46804.5 1305.21   6
  -2  10 -12 48122.5 1284.24   5
  -2  10 -13 902.359 175.526   9
  -2 -10 -13 1063.28 155.926   7
  -2 -10 -13 895.034 211.480   6
  -2  10 -14 205.086 94.8196   9
  -2 -10 -14 105.114 52.3140   7
  -2 -10 -14 371.180 109.851   6
  -2  10 -15 6720.78 219.048   9
   2  11 -14 5908.73 202.981   9
  -2  11  14 5984.34 226.593   5
   2 -11 -14 6350.14 248.311   6
   2  11 -13 20190.9 430.284  13
   2  11 -13 20413.3 482.481   9
   2 -11 -13 20420.3 602.645   6
  -2  11  13 19966.0 560.144   5
   2  11 -12 4214.26 253.667  13
   2  11 -12 4259.21 283.695   9
   2 -11 -12 4080.48 350.946   6
  -2  11  12 4139.80 324.281   5
  -2 -11  11 26665.6 869.485  20
   2  11 -11 26502.5 817.379  13
   2  11 -11 28678.4 921.174   9
  -2  11  11 24526.0 936.180   5
   2 -11 -11 22535.2 1020.49   6
  -2 -11  10 26055.8 880.998  20
   2  11 -10 25547.0 910.245  13
   2  11 -10 23752.5 822.363   9
   2 -11 -10 23592.8 1139.69   6
   2  11 -10 24593.6 832.934   5
  -2  11  10 24502.0 1151.23   5
  -2 -11   9 450.790 148.952  20
   2  11  -9 554.309 146.191  13
   2  11  -9 459.271 147.195   9
  -2  11   9 257.882 286.819   5
   2  11  -9 630.636 154.416   5
   2 -11  -9 223.329 204.333   6
  -2 -11   8 18113.2 693.236  20
   2  11  -8 17048.4 682.245  13
   2  11  -8 17573.9 648.518   9
   2  11  -8 17531.0 655.299   5
  -2  11   8 18575.5 1064.85   5
  -2 -11   7 138545. 1848.64  20
  -2  11   7 142770. 2101.25  13
   2  11  -7 138439. 1856.38  13
   2  11  -7 135239. 1710.19   9
  -2 -11   6 448.573 142.932  20
   2  11  -6 257.766 119.098  13
  -2  11   6 413.359 155.605  13
   2  11  -6 243.977 118.214   9
   2  11  -6 270.122 101.345   5
  -2  11   6 80.9411 170.283   5
   2  11  -5 52352.6 1081.70  13
  -2  11   5 56180.7 1244.02  13
  -2  11   5 57048.3 1439.02   5
   2  11  -5 56372.3 1055.07   5
  -2 -11   5 55918.9 1136.45  20
  -2  11   4 35923.6 979.788  13
   2  11  -4 35461.2 872.593  13
   2  11  -4 33734.6 799.547   5
  -2  11   4 37152.2 1101.40   5
  -2 -11   4 34246.0 1711.35  19
  -2 -11   4 39170.4 936.331  20
   2 -11  -4 36323.1 2078.12  19
  -2  11   3 7376.88 444.988  13
   2  11  -3 6944.44 384.729  13
  -2 -11   3 6897.54 779.907  19
   2 -11  -3 6312.83 851.130  19
   2 -11  -3 7020.03 418.960  20
  -2 -11   3 7697.75 415.459  20
  -2  11   3 7165.73 466.386   5
   2  11  -3 6602.24 350.684   5
  -2  11   2 6532.87 434.480   5
   2  11  -2 6942.57 356.917   5
   2  11  -2 6949.74 380.018  13
  -2  11   2 6700.09 418.916  13
  -2 -11   2 6726.53 386.306  20
   2 -11  -2 7344.30 896.860  19
   2 -11  -2 6972.44 410.698  20
  -2 -11   2 6964.77 762.025  19
   2  11  -2 7996.78 821.628  18
   2  11  -1 82494.6 1204.29   5
  -2  11   1 84965.1 1488.65   5
   2  11  -1 90605.5 2676.89  18
  -2  11   1 85506.7 1448.03  13
   2  11  -1 84129.6 1284.03  13
  -2 -11   1 84049.4 1331.52  20
  -2 -11   1 91585.6 2778.77  19
   2 -11  -1 83814.9 1396.13  20
   2 -11  -1 85367.3 2950.28  19
   2  11   0 206.901 80.2388   5
  -2  11   0 391.403 123.687   5
   2  11   0 355.087 226.093  18
  -2 -11   0-231.000 198.206  19
   2 -11   0 386.784 225.180  19
  -2  11   0 52.7140 114.543   1
  -2  11   0 160.106 97.4849  13
   2  11   0 108.393 85.6346  13
   2 -11   0 269.136 101.433  20
  -2 -11   0 227.214 97.2585  20
   2  11   1 89867.3 1262.74   5
  -2  11  -1 90498.3 1476.96   5
   2  11   1 91517.7 2751.78  18
  -2  11  -1 86129.3 2578.25   1
   2  11   1 87567.7 1291.61  13
  -2  11  -1 94035.3 1488.00  13
  -2 -11  -1 88817.6 1342.86  20
   2 -11   1 92145.8 1454.39  20
  -2 -11  -1 93713.2 2852.47  19
   2 -11   1 88005.2 2852.76  19
  -2  11  -2 58130.1 1182.52   5
   2  11   2 60409.9 1047.58   5
   2  11   2 63999.7 2357.34  18
  -2  11  -2 58747.2 2204.97   1
   2  11   2 61352.2 1063.70  13
  -2  11  -2 59323.8 1174.77  13
   2 -11   2 61352.9 1186.92  20
   2 -11   2 61887.3 2344.15  19
  -2 -11  -2 57129.4 2265.24  19
  -2 -11  -3 2496.73 225.348   6
  -2  11  -3 2593.67 259.726   5
   2  11   3 1808.98 387.385  18
  -2 -11  -3 2174.29 455.283  19
   2 -11   3 2164.48 463.635  19
  -2  11  -3 2557.84 482.629   1
  -2  11  -3 2766.58 257.967  13
   2 -11   3 2244.83 235.649  20
  -2  11  -4 14752.4 598.779   5
  -2 -11  -4 14313.7 546.559   6
   2  11   4 13385.1 1144.37  18
  -2  11  -4 13130.4 1127.12   1
   2 -11   4 14352.9 569.501  20
  -2 -11  -4 13386.6 1130.02  19
  -2  11  -4 15092.1 587.975  13
  -2  11  -5 67961.0 1230.11   9
  -2  11  -5 70226.3 1311.80   5
  -2 -11  -5 66396.8 1215.87   6
   2 -11   5 68825.5 1232.36  20
  -2  11  -5 71112.8 1255.65  13
  -2  11  -6 638.955 139.620   9
  -2 -11  -6 571.183 146.147   6
  -2  11  -6 647.461 158.909   5
   2 -11   6 670.069 136.223  20
  -2  11  -6 588.493 140.279  13
  -2  11  -7 6895.12 397.040   9
  -2  11  -7 7645.80 452.397   5
  -2 -11  -7 6855.93 422.443   6
   2 -11   7 7201.34 392.794  20
  -2  11  -7 7639.10 412.694  13
  -2  11  -8 33111.6 860.517  13
  -2  11  -8 34454.7 861.830   9
  -2  11  -8 32351.0 931.913   5
  -2 -11  -8 32971.3 943.667   6
  -2 -11  -8 33671.0 1092.89   7
   2 -11   8 34875.0 842.185  20
  -2  11  -9 6939.07 403.635  13
  -2  11  -9 7098.29 396.254   9
  -2 -11  -9 7383.78 467.072   6
  -2  11  -9 6925.52 452.634   5
  -2 -11  -9 7310.40 537.231   7
   2 -11   9 7595.45 391.358  20
  -2  11 -10 4916.67 355.538  13
  -2  11 -10 5026.62 337.296   9
  -2  11 -10 5007.75 395.091   5
  -2 -11 -10 5022.11 399.882   6
  -2 -11 -10 4366.84 431.984   7
   2 -11  10 5335.42 327.139  20
  -2  11 -11 53245.5 1057.83   9
  -2  11 -11 51914.4 1245.91   5
  -2 -11 -11 51191.4 1262.57   6
  -2 -11 -11 49278.6 1089.00   7
  -2  11 -11 50116.8 1124.36  13
  -2  11 -12 779.776 162.153   9
  -2 -11 -12 393.093 142.644   6
  -2 -11 -13 11463.4 563.531   6
  -2  11 -13 13082.7 539.759   9
  -2 -11 -14 8334.00 301.486   6
  -2  11 -14 8478.91 280.341   9
   2  12 -13 160.566 43.6520   9
   2 -12 -13 109.467 52.3527   6
   2  12 -12 19952.8 451.967   9
  -2  12  12 19175.8 554.658   5
   2 -12 -12 19969.4 616.994   6
   2  12 -12 19299.6 444.421  13
   2  12 -11 6699.35 340.567   9
  -2  12  11 6464.85 414.979   5
   2 -12 -11 6692.41 464.212   6
  -2 -12  11 7580.74 374.114  20
   2  12 -11 7183.33 358.795  13
   2  12 -10 9399.15 507.149   9
  -2  12  10 9303.37 623.470   5
   2  12 -10 9586.79 493.372   5
   2 -12 -10 9280.06 675.850   6
  -2 -12  10 9263.71 517.729  20
   2  12 -10 9643.78 544.937  13
   2  12  -9 20062.5 711.236   9
   2 -12  -9 20313.1 943.206   6
   2  12  -9 20089.9 700.278   5
  -2  12   9 22983.8 1193.79   5
  -2 -12   9 21352.5 768.415  20
   2  12  -9 20489.3 759.574  13
   2  12  -8 7625.91 426.107   9
  -2  12   8 9215.22 726.708   5
   2 -12  -8 7811.64 565.899   6
   2  12  -8 7688.37 428.262   5
  -2 -12   8 8521.72 482.946  20
   2  12  -8 8457.32 479.979  13
   2  12  -7 546.428 156.810   9
   2 -12  -7 28.0912 208.880   6
  -2  12   7 656.568 231.281   5
   2  12  -7 363.753 122.814   5
  -2 -12   7 515.236 170.998  20
  -2  12   7 272.566 139.117  13
   2  12  -7 652.377 176.330  13
   2  12  -6 152685. 1736.77   9
   2 -12  -6 151459. 2139.69   6
   2  12  -6 154850. 1788.90   5
  -2  12   6 158219. 2555.78   5
  -2  12   6 155641. 2118.44  13
   2  12  -6 151970. 1885.76  13
  -2 -12   6 151666. 1926.36  20
   2 -12  -5 23628.3 801.475   6
  -2  12   5 26461.1 984.596   5
   2  12  -5 23818.9 687.514   5
   2  12  -5 24986.3 751.213  13
  -2  12   5 24029.2 820.389  13
  -2 -12   5 25140.2 779.185  20
   2  12  -4 2320.91 216.700   5
  -2  12   4 1913.09 273.770   5
   2 -12  -4 2222.30 236.809   6
   2  12  -4 2359.71 240.090  13
  -2  12   4 1943.65 242.521  13
  -2 -12   4 2380.77 251.924  20
  -2  12   3 33173.8 1007.97   5
   2  12  -3 32953.0 781.294   5
  -2  12   3 32541.4 931.167  13
   2  12  -3 31812.1 829.913  13
  -2 -12   3 34166.0 887.857  20
   2 -12  -3 34360.2 939.644  20
   2  12  -2 43396.2 893.239   5
  -2  12   2 41854.6 1093.31   5
  -2  12   2 41926.8 1044.78  13
   2  12  -2 44105.0 962.993  13
  -2 -12   2 44956.5 1007.72  20
   2 -12  -2 42479.7 1031.39  20
   2  12  -1 6113.96 334.484   5
  -2  12   1 6278.05 418.231   5
   2  12  -1 6600.92 371.580  13
  -2  12   1 6241.47 406.544  13
   2 -12  -1 6270.94 400.441  20
  -2 -12   1 6195.86 379.703  20
   2  12   0 47712.2 923.012   5
  -2  12   0 47371.7 1109.10   5
  -2  12   0 43296.5 1043.16  13
   2  12   0 45655.4 953.092  13
   2 -12   0 45181.8 1046.38  20
  -2 -12   0 45521.3 1005.10  20
   2  12   1 8344.04 390.186   5
  -2  12  -1 8517.00 471.763   5
   2  12   1 8232.78 403.488  13
  -2  12  -1 8287.06 457.394  13
   2 -12   1 8392.73 453.906  20
  -2 -12  -1 8571.95 442.823  20
   2  12   2 7743.73 377.370   5
  -2  12  -2 8151.62 456.425   5
   2  12   2 7221.33 371.388  13
  -2  12  -2 7380.32 428.778  13
   2 -12   2 7296.50 422.475  20
  -2  12  -3 49769.2 1102.08   5
   2 -12   3 48223.7 1063.76  20
  -2  12  -3 48946.6 1072.92  13
  -2  12  -4 48532.1 1031.30   9
  -2 -12  -4 47816.8 969.269   6
  -2  12  -4 48290.7 1087.73   5
   2 -12   4 48002.1 1046.62  20
  -2  12  -4 48433.5 1052.68  13
  -2  12  -5 119.582 100.602   9
  -2  12  -5 83.9326 99.3479   5
  -2 -12  -5 65.3204 96.1165   6
   2 -12   5 22.3819 111.818  20
  -2  12  -5 1.12336 106.292  13
  -2  12  -6 51981.7 1047.31   9
  -2  12  -6 53438.9 1144.35   5
  -2 -12  -6 50128.1 1057.34   6
   2 -12   6 51070.3 1044.88  20
  -2  12  -6 50755.3 1058.17  13
  -2  12  -7 16246.3 577.842   9
  -2  12  -7 17715.7 669.241   5
  -2 -12  -7 15938.8 613.101   6
   2 -12   7 16273.8 584.080  20
  -2  12  -7 16622.5 602.696  13
  -2  12  -8 201.022 101.126   9
  -2 -12  -8 556.032 144.838   6
  -2  12  -8 209.887 104.707   5
   2 -12   8 333.508 102.397  20
  -2  12  -8 175.800 90.5753  13
  -2  12  -9 20141.7 625.725   9
  -2 -12  -9 19678.3 702.172   6
  -2  12  -9 20721.5 734.897   5
   2 -12   9 21542.2 635.740  20
  -2  12  -9 19395.5 655.600  13
  -2  12 -10 24832.2 692.372   9
  -2 -12 -10 23346.7 783.812   6
  -2  12 -10 24564.1 800.739   5
   2 -12  10 24251.4 663.264  20
  -2  12 -10 23871.5 735.218  13
  -2  12 -11 4745.74 309.017   9
  -2  12 -11 4967.82 366.112   5
  -2  12 -11 4163.97 255.898  13
  -2 -12 -11 4264.59 346.625   6
  -2 -12 -12 24862.5 813.257   6
  -2  12 -12 25959.7 705.237   9
  -2  12 -13 435.985 88.5037   9
  -2 -12 -13 171.703 66.2187   6
   2 -13 -12 396.855 71.1334   6
   2  13 -11 15922.6 334.863   9
   2 -13 -11 16270.8 532.619   6
  -2  13  11 15860.2 487.273   5
   2  13 -11 16223.0 407.646  13
   2  13 -10 12550.6 392.473   9
  -2  13  10 12037.1 559.019   5
   2 -13 -10 11459.5 585.096   6
  -2 -13  10 12657.2 503.597  20
   2  13 -10 12897.4 485.017  13
   2  13  -9 159.035 98.1799   9
   2  13  -9 302.247 102.790   5
   2 -13  -9-60.4948 148.512   6
  -2  13   9 249.561 173.240   5
  -2 -13   9 164.463 109.118  20
   2  13  -9 228.498 117.526  13
   2  13  -8 19915.0 656.967   9
   2  13  -8 21317.6 666.039   5
   2 -13  -8 19826.7 811.940   6
   2  13  -8 20580.8 722.358  13
  -2 -13   8 20873.7 736.430  20
   2  13  -7 39593.1 886.555   5
   2 -13  -7 40761.1 1095.26   6
  -2  13   7 42976.9 1341.31   5
   2  13  -7 41261.3 994.806  13
  -2  13   7 44514.5 1142.71  13
  -2 -13   7 42322.1 1031.01  20
  -2  13   6 5357.22 468.028   5
   2  13  -6 4293.79 292.622   5
   2 -13  -6 4391.18 352.173   6
   2  13  -6 4829.60 344.807  13
  -2  13   6 4981.53 378.711  13
  -2 -13   6 5008.60 360.934  20
   2  13  -5 37922.4 840.951   5
  -2  13   5 41200.5 1190.57   5
   2 -13  -5 37147.8 928.492   6
  -2  13   5 38885.6 1014.78  13
   2  13  -5 37350.0 911.414  13
  -2 -13   5 37882.4 957.658  20
  -2  13   4 25787.7 905.197   5
   2  13  -4 23165.3 648.456   5
   2  13  -4 24081.6 724.497  13
  -2  13   4 23592.3 781.649  13
  -2 -13   4 24093.6 762.294  20
   2  13  -3 8130.98 383.871   5
  -2  13   3 9250.70 529.780   5
  -2  13   3 7966.64 457.617  13
   2  13  -3 8531.99 430.842  13
   2 -13  -3 8804.46 481.336  20
  -2 -13   3 9047.61 468.504  20
  -2  13   2 4881.81 377.742   5
   2  13  -2 4579.64 287.828   5
  -2  13   2 4685.80 355.862  13
   2  13  -2 4899.17 326.956  13
  -2 -13   2 4802.84 341.186  20
   2 -13  -2 5106.19 365.347  20
  -2  13   1 50401.5 1154.32   5
   2  13  -1 46827.3 895.722   5
  -2  13   1 48875.2 1098.92  13
   2  13  -1 50657.1 1012.06  13
   2 -13  -1 48988.1 1098.23  20
  -2 -13   1 49382.7 1066.60  20
   2  13   0 128.764 71.1891   5
  -2  13   0 170.024 101.385   5
   2  13   0 223.772 95.1610  13
   2 -13   0 83.6716 103.677  20
  -2 -13   0 178.820 88.3934  20
   2  13   1 23427.2 631.147   5
  -2  13  -1 23383.5 761.704   5
   2  13   1 23624.7 669.510  13
  -2  13  -1 23609.3 753.922  13
  -2 -13  -1 22773.7 734.882  20
   2 -13   1 22647.9 733.262  20
  -2  13  -2 77476.7 1376.52   5
   2 -13   2 77828.9 1342.97  20
   2  13   2 77612.5 1182.33  13
  -2  13  -2 77482.5 1343.06  13
  -2  13  -3 10220.7 459.889   9
  -2  13  -3 10998.4 516.565   5
   2 -13   3 12180.4 528.980  20
  -2  13  -3 11205.8 507.390  13
  -2  13  -4 22979.9 677.692   9
  -2  13  -4 23688.9 747.054   5
   2 -13   4 24106.2 728.079  20
  -2  13  -4 23907.1 727.401  13
  -2  13  -5 66055.4 1186.82  13
  -2  13  -5 66223.8 1131.09   9
  -2  13  -5 65705.0 1230.16   5
  -2 -13  -5 65853.0 1090.33   6
   2 -13   5 68724.0 1205.34  20
  -2  13  -6 2496.08 240.346  13
  -2  13  -6 2694.43 238.671   9
  -2  13  -6 2753.34 269.535   5
  -2 -13  -6 2859.44 240.779   6
   2 -13   6 3026.65 261.228  20
  -2  13  -7 10874.4 473.823  13
  -2  13  -7 11262.4 455.369   9
  -2  13  -7 11328.5 514.078   5
  -2 -13  -7 10986.0 468.927   6
   2 -13   7 10650.0 454.290  20
  -2  13  -8 6051.05 350.932  13
  -2  13  -8 5893.83 327.171   9
  -2  13  -8 6073.01 376.666   5
  -2 -13  -8 5776.75 345.754   6
   2 -13   8 5819.70 328.947  20
  -2  13  -9 10291.5 456.203  13
  -2  13  -9 10827.0 431.021   9
  -2  13  -9 10770.5 496.239   5
  -2 -13  -9 10557.6 470.889   6
   2 -13   9 10606.4 428.587  20
  -2  13 -10 4710.17 303.900  13
  -2  13 -10 5299.35 303.414   9
  -2  13 -10 5764.54 363.376   5
  -2 -13 -10 5156.59 337.740   6
   2 -13  10 5030.34 289.802  20
  -2  13 -11 35576.6 759.286   9
  -2 -13 -11 34299.5 846.875   6
   2 -14 -10 3964.03 217.002   6
   2  14 -10 3951.75 191.137  13
  -2  14   9 11102.9 492.078   5
   2 -14  -9 10701.6 471.739   6
   2  14  -9 11758.7 440.299  13
   2  14  -8 12904.4 461.394   5
  -2  14   8 13820.7 709.379   5
   2 -14  -8 12110.8 552.565   6
   2  14  -8 13269.0 547.481  13
  -2 -14   8 12274.5 543.386  20
  -2  14   7 291.470 151.757   5
   2 -14  -7 517.665 146.860   6
   2  14  -7 299.198 92.1886   5
   2  14  -7 508.858 133.051  13
  -2 -14   7 224.903 115.571  20
   2  14  -6 36813.5 776.122   5
  -2  14   6 36804.1 1090.69   5
  -2  14   6 39432.9 1000.20  13
   2  14  -6 39220.8 916.108  13
  -2 -14   6 34659.1 909.618  20
   2  14  -5 30497.5 699.963   5
  -2  14   5 30760.0 960.841   5
  -2  14   5 31871.4 882.543  13
   2  14  -5 31241.7 800.588  13
  -2 -14   5 30129.7 850.756  20
   2  14  -4 11319.6 427.198   5
  -2  14   4 11725.6 576.918   5
  -2  14   4 11787.7 529.097  13
   2  14  -4 12005.2 493.905  13
  -2 -14   4 11306.4 524.488  20
  -2  14   3 9521.09 505.853   5
   2  14  -3 8965.31 375.435   5
  -2  14   3 8891.79 457.448  13
   2  14  -3 9392.55 433.471  13
  -2 -14   3 8507.85 449.048  20
  -2  14   2 26361.5 814.405   5
   2  14  -2 26115.8 629.989   5
   2  14  -2 25089.9 694.287  13
  -2  14   2 25870.2 766.449  13
   2 -14  -2 25076.6 781.506  20
  -2 -14   2 25937.6 780.158  20
  -2  14   1 2755.51 271.782   5
   2  14  -1 2497.87 201.804   5
   2  14  -1 2539.34 225.509  13
  -2  14   1 2536.89 257.673  13
   2 -14  -1 2672.99 259.374  20
  -2 -14   1 2450.67 255.768  20
  -2  14   0 52945.8 1105.10   5
  -2 -14   0 51002.6 1089.97  20
   2 -14   0 52249.2 1083.41  20
   2  14   0 51725.4 963.872  13
  -2  14   0 51049.2 1060.38  13
  -2  14  -1 21957.8 605.849   9
  -2  14  -1 21893.0 703.913   5
   2 -14   1 21626.6 693.722  20
  -2  14  -1 22332.1 696.149  13
   2  14   1 22804.5 627.222  13
  -2  14  -2 201.633 85.1220   9
  -2  14  -2 260.045 117.278   5
   2 -14   2 128.102 101.465  20
  -2  14  -2 259.470 119.883  13
  -2  14  -3 36546.3 781.418   9
  -2  14  -3 37163.0 890.093   5
   2 -14   3 36545.2 874.413  20
  -2  14  -3 36531.6 862.419  13
  -2  14  -4 34463.6 751.646   9
  -2  14  -4 32724.7 823.207   5
   2 -14   4 31512.8 796.162  20
  -2  14  -4 31798.2 791.403  13
  -2  14  -5 111.722 80.1207   9
  -2  14  -5 165.071 99.3721   5
   2 -14   5 67.1950 94.1470  20
  -2  14  -5 52.4986 91.5050  13
  -2  14  -6 44414.4 899.340  13
  -2  14  -6 44037.9 824.182   9
  -2  14  -6 43186.4 926.816   5
  -2 -14  -6 41925.5 765.439   6
   2 -14   6 42689.5 872.908  20
  -2  14  -7 16198.2 538.291  13
  -2  14  -7 16360.4 501.304   9
  -2  14  -7 16047.8 562.618   5
  -2 -14  -7 15828.6 484.544   6
   2 -14   7 17511.5 546.080  20
  -2  14  -8 489.568 106.803   9
  -2 -14  -8 197.943 72.6942   6
  -2  14  -8 413.642 113.382   5
   2 -14   8 246.151 91.5372  20
  -2  14  -8 440.915 108.542  13
  -2  14  -9 10727.2 419.146  13
  -2  14  -9 11260.6 400.149   9
  -2  14  -9 11499.4 460.922   5
  -2 -14  -9 11269.7 417.881   6
   2 -14   9 10580.6 401.267  20
  -2  14 -10 31595.4 634.122   9
   2  15  -8 9540.54 331.193  13
  -2 -15   8 9592.03 340.087  20
  -2  15   7 12183.6 545.096   5
   2  15  -7 11605.4 468.187  13
  -2 -15   7 11909.1 497.616  20
  -2  15   6 1542.37 208.976   5
   2  15  -6 1662.03 190.401  13
  -2 -15   6 1293.06 186.317  20
  -2  15   5 31445.1 868.890   5
  -2  15   5 32365.4 820.595  13
   2  15  -5 30178.9 745.463  13
  -2  15   4 20813.4 694.853   5
   2  15  -4 20617.0 609.707  13
  -2  15   4 21270.4 660.787  13
  -2 -15   4 20194.1 674.203  20
  -2  15   3 701.708 148.386   5
   2  15  -3 994.114 151.516  13
  -2  15   3 688.764 136.135  13
  -2 -15   3 1046.65 175.928  20
  -2  15   2 8525.33 430.670   5
   2  15  -2 8600.80 385.455  13
  -2  15   2 8111.44 398.977  13
   2 -15  -2 7805.46 418.303  20
  -2 -15   2 8058.58 432.783  20
  -2  15   1 83814.3 1295.11   5
  -2  15   1 81331.4 1242.57  13
   2  15  -1 80573.1 1140.27  13
   2 -15  -1 76556.4 1282.37  20
  -2 -15   1 77402.1 1326.59  20
  -2  15   0 5841.02 345.265   5
  -2  15   0 5665.44 331.526  13
   2  15   0 5592.09 299.274  13
  -2 -15   0 4898.28 347.308  20
   2 -15   0 5917.04 359.528  20
  -2  15  -1 4521.38 297.868   5
  -2  15  -1 4393.99 289.120  13
   2  15   1 4213.40 254.053  13
   2 -15   1 4497.56 305.384  20
  -2  15  -2 38975.3 843.914   5
  -2  15  -2 37827.5 819.293  13
   2 -15   2 36270.8 827.431  20
  -2  15  -3 1540.94 175.766   5
   2 -15   3 1568.00 182.379  20
  -2  15  -3 1526.84 171.552  13
  -2  15  -4 22444.1 620.972   5
   2 -15   4 21803.5 612.913  20
  -2  15  -4 21283.5 594.525  13
  -2  15  -4 21118.5 508.246   9
  -2  15  -5 20487.0 586.022   5
   2 -15   5 19407.2 563.762  20
  -2  15  -5 18984.3 552.436  13
  -2  15  -5 19138.2 480.266   9
  -2  15  -6 2374.61 205.054   5
   2 -15   6 2337.06 199.452  20
  -2  15  -6 2261.00 197.904  13
  -2  15  -6 2312.73 172.515   9
  -2  15  -7 15543.1 489.420   5
   2 -15   7 15660.1 475.298  20
  -2  15  -7 15630.7 481.471  13
  -2  15  -7 15003.2 407.230   9
  -2  15  -8 12330.8 416.447   5
   2 -15   8 12036.7 394.828  20
   2  16  -5 6863.47 311.499  13
  -2 -16   5 7196.99 301.673  20
  -2  16   4 14072.0 474.215   5
   2  16  -4 12725.2 427.605  13
  -2 -16   4 13209.6 464.335  20
  -2  16   3 25924.3 648.268   5
   2  16  -3 24761.9 588.458  13
  -2 -16   3 25326.5 668.452  20
  -2  16   2 28439.4 672.622   5
   2  16  -2 27195.5 606.939  13
  -2  16   2 28973.3 676.983  13
  -2 -16   2 27003.1 685.875  20
   2  16  -1 2335.01 178.525  13
  -2  16   1 2987.05 222.793  13
  -2  16   1 2530.42 205.814   5
  -2  16   0 21274.7 563.402   5
  -2  16   0 20841.1 562.141  13
  -2  16  -1 13891.0 449.678   5
  -2  16  -1 13405.1 447.383  13
   2 -16   1 12795.3 470.365  20
  -2  16  -2 62.2931 63.3460   5
  -2  16  -2 181.161 73.5921  13
   2 -16   2 18.1618 77.0340  20
  -2  16  -3 10901.2 384.463   5
  -2  16  -3 10877.0 387.747  13
   2 -16   3 10799.1 410.007  20
  -2  16  -4 8204.70 325.673   5
  -2  16  -4 7691.40 321.115  13
   2 -16   4 7583.15 335.572  20
  -2  16  -5 2003.41 160.063   5
  -2  16  -5 1909.80 159.828  13
   2 -16   5 1953.01 171.354  20
   3   0 -18-140.930 93.9036  10
   3   0 -18-82.6049 80.8867   7
   3   0 -18-88.2899 58.0219   9
   3   0 -17 12295.1 463.914   7
   3   0 -17 11648.8 367.594   9
   3   0 -17 11701.3 478.492  10
   3   0 -16 122.481 109.704  10
   3   0 -16 94.3660 108.134   7
   3   0 -16 6.34335 68.6440   9
   3   0 -15 136431. 1922.08   7
   3   0 -15 130998. 1488.90   9
   3   0 -15 134094. 2148.90  10
   3   0 -14-7.98020 153.072  10
   3   0 -14 122.215 97.0669   9
  -3   0  13 14826.7 1140.78  17
   3   0 -13 14441.1 535.118  13
   3   0 -13 14518.7 530.384   9
   3   0 -13 15436.1 865.930  10
  -3   0  12-295.160 189.440   2
   3   0 -12-91.4991 213.328  10
  -3   0  12 1.50604 224.346  17
   3   0 -12-201.816 200.218  16
   3   0 -12 123.947 76.7349   9
   3   0 -12 285.502 107.133  13
  -3   0  11 142998. 3600.43  17
   3   0 -11 132160. 1549.40   9
   3   0 -11 138729. 2751.00  10
  -3   0  11 122582. 3074.50   2
   3   0 -11 125778. 4294.60  16
  -3   0  10-120.751 157.531   2
   3   0 -10 374.457 324.695  16
  -3   0  10 42.8688 162.083  17
  -3   0   9 177932. 3475.78   2
  -3   0   9 176711. 3950.54  17
  -3   0   8 17.0067 144.267   2
   3   0  -8 15.6398 270.695  16
  -3   0   8-29.3009 176.232  17
   3   0  -8-104.190 265.011  18
  -3   0   7 1950.81 341.936   2
  -3   0   7 2047.18 412.591  17
   3   0  -7 1518.61 487.498  16
   3   0  -7 1496.88 355.682  18
  -3   0   6 89.8251 117.699   2
   3   0  -6 324.850 127.863   3
  -3   0   6 87.1678 154.858  17
   3   0  -6-4.42702 146.951  18
   3   0  -5 390624. 4339.32  18
  -3   0   5 410278. 4641.68  17
  -3   0   4 34.6805 81.3204   2
  -3   0   4 295.669 137.594  17
   3   0  -4 118.492 105.990  18
   3   0  -3 740101. 5155.59  18
  -3   0   3 721972. 4292.03   2
   3   0  -2 47.3364 106.060  18
  -3   0   2 78.3430 59.2845   4
  -3   0   2 11.7614 114.000   1
  -3   0   2 159.635 117.703   2
  -3   0   1 137350. 2212.83  17
   3   0  -1 119129. 2271.25  18
  -3   0   1 140102. 1716.66   4
  -3   0   1 128208. 2296.74   1
  -3   0   1 128511. 1477.53   2
  -3   0   0 96.3483 149.987  19
   3   0   0 161.438 81.8570  18
  -3   0   0 149.069 52.6638   2
  -3   0   0 336.080 125.742   1
  -3   0   0-39.5573 131.295   4
  -3   0  -1 156249. 1945.30   1
   3   0   1 153550. 1352.80  18
  -3   0  -1 137111. 2555.21   4
  -3   0  -1 143171. 2633.18  19
  -3   0  -2 14.9293 58.4361  16
  -3   0  -2 48.7927 147.138   4
   3   0   2 24.0847 30.2935  18
  -3   0  -2 98.9895 85.4535   1
  -3   0  -3 107305. 1590.82  16
   3   0   3 107596. 1589.15   3
  -3   0  -3 108674. 2345.83   4
  -3   0  -3 107720. 1612.45   1
  -3   0  -4 11.5664 71.4942  16
  -3   0  -4 4.28476 115.793   4
   3   0   4 67.1274 53.3776   3
  -3   0  -4 210.281 107.924   1
   3   0   5 87727.2 1545.47  17
  -3   0  -5 84685.9 1673.95  16
  -3   0  -5 88444.4 2180.41   4
  -3   0  -5 87382.4 1646.78   1
  -3   0  -6-16.2862 103.599  16
   3   0   6 159.397 95.4150  17
  -3   0  -6 20.5224 112.836   4
   3   0   6 123.861 50.0517   3
  -3   0  -6 5.44664 72.2210   1
  -3   0  -7 215339. 3188.35  16
  -3   0  -7 217146. 3589.89   4
   3   0   7 219462. 2835.85  17
  -3   0  -7 223526. 3345.05   1
  -3   0  -8-19.6424 163.839   4
   3   0   8-21.4170 102.752  17
  -3   0  -8 217.630 166.287  16
  -3   0  -9 290096. 4491.14  16
  -3   0  -9 291666. 4507.89   4
   3   0   9 284404. 3804.38  17
  -3   0 -10-159.526 159.187   4
  -3   0 -10-12.9342 189.593  16
   3   0  10 41.2720 115.745  17
  -3   0 -11 2461.74 262.785   7
  -3   0 -11 2332.95 222.035  11
  -3   0 -11 2573.47 261.022  10
   3   0  11 2244.00 580.309   2
   3   0  11 2036.79 406.857  17
  -3   0 -11 2607.38 221.608  15
  -3   0 -11 3210.98 589.025  16
  -3   0 -12-65.8881 131.020  15
  -3   0 -12 193.666 155.132   4
  -3   0 -12-77.8380 167.995  12
  -3   0 -12 8.07878 107.930  10
   3   0  12 120.726 147.116   2
  -3   0 -12-141.179 214.973  16
  -3   0 -12 23.3726 113.007   7
  -3   0 -13 70218.3 1532.76  10
  -3   0 -13 70903.6 1570.51   7
  -3   0 -13 70643.3 1244.72  15
  -3   0 -14 42.6140 108.848  10
  -3   0 -14 273.874 144.748   7
  -3   0 -14-129.953 223.156  12
  -3   0 -15 70693.4 1487.97  12
  -3   0 -15 66769.3 1654.84   7
  -3   0 -15 68957.1 1674.42  10
  -3   0 -16-172.292 221.083  10
  -3   0 -16-170.243 210.735   7
  -3   0 -17 4402.07 454.971  10
  -3   0 -17 4122.55 393.368   7
  -3   0 -18 57.1101 73.7724   7
  -3   0 -18-80.3244 107.196  10
   3  -1 -18 1235.61 125.324   7
   3   1 -18 1268.00 129.190   7
   3   1 -18 1271.80 127.375  10
   3  -1 -18 1307.80 135.847  10
   3   1 -18 1203.41 103.014   9
   3   1 -17 17.9227 64.0588   9
   3  -1 -17 131.264 64.7299   9
   3  -1 -17-78.8177 98.9256   7
   3   1 -17 100.054 82.6748   7
   3   1 -17-105.780 110.274  10
   3  -1 -17-101.567 112.486  10
   3  -1 -16 52885.6 1079.55   7
   3   1 -16 54535.4 1102.76   7
   3   1 -16 52468.7 1162.00  10
   3  -1 -16 53272.9 879.310   9
   3  -1 -16 53654.7 1202.63  10
   3   1 -16 54347.0 889.274   9
   3  -1 -15 5428.45 392.510   7
   3   1 -15 5139.99 430.970  10
   3   1 -15 5127.50 304.692   9
   3  -1 -15 5001.59 430.190  10
   3  -1 -15 5152.44 300.842   9
   3   1 -14 113114. 1443.31   9
   3   1 -14 116126. 2182.23  10
   3  -1 -14 113361. 2179.60  10
   3   1 -13 10314.0 437.335  13
   3   1 -13 9860.31 445.650   9
   3  -1 -13 9710.96 429.115   9
   3  -1 -13 10302.1 707.460  10
   3   1 -13 10063.2 701.380  10
   3  -1 -12 39105.7 854.022   9
   3   1 -12 39869.5 894.374   9
   3   1 -12 40759.8 1475.48  10
   3  -1 -12 41424.8 1467.19  10
   3  -1 -12 36693.2 2307.48  16
  -3   1  12 40601.0 1788.26  17
  -3  -1  12 41057.8 2080.62  17
   3   1 -12 38887.6 838.272  13
   3  -1 -12 38838.7 906.569  13
  -3   1  12 40442.4 1756.44   2
  -3  -1  12 41868.0 1894.63   2
   3  -1 -11 210.136 88.6443   9
   3   1 -11 248.293 98.2308   9
  -3   1  11 178.853 168.310   2
  -3  -1  11 301.852 206.792   2
   3  -1 -11-10.3895 191.550  10
   3   1 -11 190.334 158.801  10
   3   1 -11 122.101 189.812  16
  -3   1  11 261.504 212.062  17
  -3  -1  11 711.362 316.567  17
   3  -1 -11 54.6818 360.967  16
   3   1 -11 203.477 70.6593  13
  -3   1  10 333133. 4744.33   2
  -3  -1  10 351893. 5418.43   2
   3  -1 -10 319645. 6945.03  16
   3   1 -10 307035. 6949.90  16
  -3  -1  10 344315. 6232.24  17
  -3   1  10 348221. 5028.79  17
  -3   1   9 1207.75 298.132   2
  -3  -1   9 1630.05 382.321   2
  -3  -1   9 1097.01 387.529  17
   3   1  -9 1242.35 498.159  16
  -3   1   9 1446.86 326.750  17
   3  -1  -9 872.868 436.602  16
   3   1  -9 1311.43 334.582  18
  -3   1   8 259496. 3746.31   2
  -3  -1   8 259822. 4504.32   2
   3   1  -8 231531. 5513.13  16
   3  -1  -8 218119. 5518.15  16
   3   1  -8 255817. 4150.64  18
  -3  -1   8 265311. 5342.85  17
  -3   1   8 248980. 3967.98  17
  -3   1   7 2495.52 355.204   2
  -3  -1   7 2305.16 443.987   2
   3   1  -7 1741.94 435.041  16
  -3  -1   7 2148.73 449.275  17
   3  -1  -7 1754.82 495.386  16
   3   1  -7 2007.41 361.340  18
  -3   1   7 2210.27 367.258  17
   3  -1  -6 3949.54 461.456   3
  -3  -1   6 5165.63 650.930  17
   3  -1  -6 3945.45 634.489  18
   3   1  -6 4228.65 455.230  18
  -3   1   6 4196.51 460.649  17
  -3   1   6 3894.04 423.209   2
  -3  -1   6 4407.01 553.344   2
  -3  -1   5 12931.2 712.718  19
   3  -1  -5 11067.5 710.249   3
  -3  -1   5 13230.0 1010.27  17
   3  -1  -5 12664.6 1023.60  18
   3   1  -5 12797.3 735.685  18
  -3   1   5 12274.5 737.570  17
  -3  -1   5 13306.8 878.806   2
  -3   1   5 11828.9 662.272   2
  -3  -1   4 116915. 2301.54  19
   3  -1  -4 114789. 2237.29   3
   3  -1  -4 120235. 2904.17  18
   3   1  -4 119630. 2218.23  18
  -3  -1   4 123832. 2728.00  17
  -3   1   4 124906. 2218.94  17
  -3   1   4 124452. 2018.85   2
  -3   1   4 115108. 1702.71   1
  -3  -1   4 122379. 2270.31   2
  -3  -1   3 7690.28 677.276  19
   3  -1  -3 7282.57 614.495   3
   3  -1  -3 6939.45 651.268  18
   3   1  -3 7247.77 623.189  18
  -3   1   3 6534.25 563.238  17
  -3  -1   3 7543.56 580.393  17
  -3   1   3 7099.65 517.176   1
  -3  -1   3 7308.85 452.766   2
  -3   1   3 6413.31 489.776   2
  -3  -1   2 134033. 928.017   4
   3  -1  -2 144894. 2572.27   3
   3  -1  -2 129438. 2567.90  18
   3   1  -2 129395. 2230.94  18
  -3  -1   2 137686. 2222.46  17
  -3  -1   2 133378. 1524.27   2
  -3   1   2 142686. 2052.54   1
  -3   1   2 155115. 2571.66   2
  -3  -1   2 144351. 2332.36   1
   3  -1  -1 19484.4 889.393   3
  -3  -1   1 18596.2 618.265   4
   3   1  -1 17647.1 629.239  18
  -3  -1   1 19557.1 958.600  17
   3  -1  -1 17552.5 867.475  18
  -3   1   1 17467.0 623.445   2
  -3  -1   1 18160.1 816.615   1
  -3   1   1 18069.2 627.965   1
  -3  -1   1 18934.6 464.941   2
   3  -1   0 134584. 2114.21  18
   3   1   0 128992. 1435.97  18
  -3  -1   0 125298. 2303.20   1
  -3   1   0 132483. 1599.49   1
  -3  -1   0 139844. 2455.28   4
  -3   1   0 124623. 1468.12   2
  -3  -1   0 130726. 2039.47  19
  -3  -1  -1 39462.2 1092.62  19
   3  -1   1 39818.9 994.188  18
   3   1   1 39795.3 752.412  18
   3  -1   1 41778.2 1053.85   3
  -3  -1  -1 38854.2 1345.20   4
  -3   1  -1 42998.6 909.255   1
  -3  -1  -1 40061.5 826.861  16
  -3  -1  -2 455467. 3765.69  19
   3   1   2 507325. 2683.74  18
  -3   1  -2 455655. 5088.58   4
   3  -1   2 494004. 3322.73   3
  -3   1  -2 510000. 3209.90   1
  -3  -1  -2 508027. 3169.73  16
  -3  -1  -3 2240.23 297.996  19
   3  -1   3 2366.85 110.337  18
  -3  -1  -3 2954.42 414.910   4
   3  -1   3 2572.92 231.239   3
  -3   1  -3 2601.03 389.980   4
  -3   1  -3 2629.00 241.774   1
  -3  -1  -3 3415.02 451.960   1
  -3   1  -3 2647.58 254.002  16
  -3  -1  -3 2870.67 267.869  16
  -3  -1  -4 25602.1 1384.54  19
  -3  -1  -4 25089.5 1186.63   1
  -3   1  -4 25661.5 789.141   1
   3  -1   4 23815.6 661.517   3
  -3  -1  -4 26305.9 1190.30   4
   3  -1   4 24409.2 363.857  18
  -3  -1  -4 25604.5 857.593  16
  -3   1  -4 24758.6 831.215  16
  -3   1  -5 9200.26 516.500   1
  -3  -1  -5 9657.41 812.753   1
   3  -1   5 9222.16 398.675   3
  -3   1  -5 9246.18 721.810   4
   3   1   5 8870.23 408.538   3
  -3  -1  -5 9342.89 729.702   4
   3   1   5 9188.66 469.604  17
  -3  -1  -5 9907.20 588.198  16
  -3   1  -5 9367.69 554.794  16
  -3   1  -6 39650.9 1141.95   1
  -3  -1  -6 39960.8 1668.73   1
  -3   1  -6 40318.2 1499.55   4
  -3  -1  -6 38810.8 1510.40   4
   3  -1   6 35667.8 751.250   3
   3   1   6 37741.4 1035.09  17
   3  -1   6 35922.0 1149.42  17
  -3  -1  -6 38235.3 1263.98  16
  -3   1  -6 37488.4 1203.84  16
  -3   1  -7 181.174 120.346   1
  -3   1  -7 79.1158 113.961   4
  -3  -1  -7 137.768 129.178   4
   3  -1   7 53.0702 121.005  17
   3   1   7 225.430 97.1547  17
  -3  -1  -7 195.605 164.888  16
  -3   1  -7 416.600 169.805  16
   3   1   8 408695. 6374.02   2
  -3   1  -8 419278. 5139.35   4
  -3  -1  -8 408127. 5274.80   4
   3  -1   8 417371. 4399.49  17
   3   1   8 414843. 4087.26  17
  -3  -1  -8 412045. 4958.18  16
  -3   1  -8 412563. 4803.75  16
   3   1   9 582.330 303.820   2
  -3  -1  -9 468.081 189.333   4
  -3   1  -9 264.610 143.953   4
   3   1   9 687.154 207.575  17
   3  -1   9 484.767 176.021  17
  -3  -1  -9 466.179 193.360  16
  -3   1  -9 725.898 252.182  16
   3   1  10 33908.5 2261.63   2
  -3  -1 -10 35208.8 1765.69  16
  -3   1 -10 35571.3 1725.11  16
  -3   1 -10 33830.7 1578.77   4
  -3  -1 -10 35172.5 1685.01   4
   3  -1  10 34011.6 1456.13  17
   3  -1  11 426.066 190.266  17
  -3  -1 -11 602.671 279.617  16
  -3   1 -11 234.299 223.589  16
  -3  -1 -11 329.795 101.887  15
  -3   1 -11 396.765 101.366  15
  -3  -1 -11 631.815 144.054   7
  -3   1 -11 527.093 139.546   7
  -3  -1 -11 473.439 114.755  11
  -3   1 -11 436.192 134.657  12
  -3   1 -11 535.119 120.751  11
  -3  -1 -11 474.378 136.141  12
   3   1  11 759.759 360.321   2
   3  -1  11 195.853 188.996   2
  -3   1 -11 159.388 135.528   4
  -3  -1 -11 442.295 200.487   4
  -3   1 -11 479.504 126.617  10
  -3  -1 -11 470.375 131.040  10
   3  -1  12 42707.3 1931.57  17
  -3   1 -12 47189.0 1179.16   7
  -3  -1 -12 48461.5 1226.28   7
  -3   1 -12 47814.9 1105.07  12
  -3  -1 -12 46390.0 1211.26  12
  -3  -1 -12 46368.6 1166.23  10
  -3   1 -12 47980.0 1187.29  10
  -3  -1 -12 45851.8 2092.50   4
  -3   1 -12 48990.6 985.709  15
  -3  -1 -12 45445.9 1010.01  15
  -3  -1 -12 46018.4 2465.17  16
  -3   1 -12 46486.3 2472.24  16
   3  -1  12 42848.0 2607.93   2
   3   1  12 49053.6 2525.31   2
  -3  -1 -13 235.988 130.138  10
  -3   1 -13 210.177 131.457  10
  -3  -1 -13 456.038 188.135  15
  -3   1 -13-10.1842 140.487  15
  -3  -1 -13 124.139 138.503   7
  -3   1 -13 172.891 111.359   7
  -3   1 -13 73.3424 161.066  12
  -3  -1 -13-7.39294 233.766  12
  -3   1 -14 118438. 2098.54  10
  -3  -1 -14 120794. 2116.17  10
  -3  -1 -14 118138. 2154.15   7
  -3   1 -14 117414. 2067.44   7
  -3  -1 -14 114383. 1644.99  15
  -3   1 -14 109587. 1479.15  15
  -3   1 -14 113639. 1830.65  12
  -3  -1 -14 121509. 2050.45  12
  -3   1 -15 4441.49 371.805  12
  -3  -1 -15 4647.61 446.508  12
  -3  -1 -15 3669.89 398.309   7
  -3   1 -15 3625.72 397.415   7
  -3   1 -15 4226.75 421.835  10
  -3  -1 -15 4034.55 416.080  10
  -3   1 -16 18231.8 713.641  12
  -3   1 -16 17555.5 874.947  10
  -3  -1 -16 18181.9 880.997  10
  -3   1 -16 16181.9 793.886   7
  -3  -1 -16 16336.7 839.407   7
  -3  -1 -17 281.585 180.163  10
  -3   1 -17 379.717 177.234  10
  -3   1 -17 424.569 168.765   7
  -3  -1 -17 637.380 188.728   7
  -3  -1 -18 15465.5 489.981   7
  -3   1 -18 14536.0 429.151   7
  -3  -1 -18 15805.0 535.636  10
  -3   1 -18 16227.2 500.990  10
   3   2 -18 518.858 92.7395   7
   3  -2 -18 471.477 84.8823   7
   3   2 -18 356.771 68.0852  10
   3  -2 -18 321.966 72.3048  10
   3   2 -18 497.691 71.3836   9
   3   2 -17 12006.5 451.036   7
   3  -2 -17 11496.9 423.734   7
   3   2 -17 11467.6 435.527  10
   3  -2 -17 12110.2 480.330  10
   3   2 -17 11935.0 369.443   9
   3   2 -16 314.102 129.617   7
   3  -2 -16 226.900 103.024   7
   3  -2 -16 114.065 93.6852  10
   3   2 -16 231.872 111.462  10
   3  -2 -16 134.840 71.8976   9
   3   2 -16 186.633 91.2095   9
   3  -2 -15 76015.8 1408.17   7
   3  -2 -15 78030.1 1631.45  10
   3  -2 -15 75866.5 1133.96   9
   3   2 -15 75640.6 1560.29  10
   3   2 -15 75992.4 1135.06   9
   3   2 -14 343.362 155.968  10
   3  -2 -14 389.506 174.970  10
   3   2 -14 533.531 126.001   9
   3  -2 -14 540.678 117.980   9
   3  -2 -14 599.475 175.142   7
   3   2 -14 670.457 118.200  13
   3   2 -13 12572.1 779.723  10
   3   2 -13 12373.4 509.478   9
   3  -2 -13 12940.6 799.263  10
   3  -2 -13 12258.5 491.104   9
   3  -2 -13 12318.9 653.729   7
   3   2 -13 12766.6 481.602  13
   3   2 -12 9028.39 712.311  10
   3  -2 -12 7953.83 398.581   9
   3  -2 -12 8094.09 672.660  10
  -3  -2  12 7768.78 847.702   2
  -3   2  12 8327.73 803.223   2
   3   2 -12 8255.46 385.565  13
   3  -2 -12 8098.96 1137.60  16
   3   2 -12 8055.16 425.082   9
  -3   2  12 7997.40 761.168  17
  -3  -2  12 8226.93 1012.91  17
   3  -2 -11 85225.0 1262.54   9
   3   2 -11 94986.7 2385.32  10
   3  -2 -11 88269.4 2220.81  10
   3   2 -11 85481.8 1231.01  13
  -3   2  11 77319.9 2343.12   2
  -3  -2  11 86786.6 2904.52   2
   3   2 -11 86167.2 1416.58   9
   3  -2 -11 76638.2 3476.12  16
  -3  -2  11 88083.1 3397.38  17
  -3   2  11 84225.8 2387.60  17
  -3   2  10 2829.72 434.954   2
  -3  -2  10 3277.54 587.481   2
   3  -2 -10 1972.42 581.490  16
  -3  -2  10 3293.14 744.858  17
  -3   2  10 2468.43 404.105  17
  -3   2   9 142956. 2884.79   2
  -3  -2   9 146031. 3927.78   2
   3   2  -9 132335. 4415.29  16
   3  -2  -9 109959. 4094.46  16
  -3   2   9 123841. 2682.63  17
   3   2  -9 130342. 3029.19  18
  -3  -2   9 128818. 3912.44  17
  -3  -2   8 6363.11 748.821   2
  -3   2   8 5676.77 559.589   2
   3   2  -8 5428.37 781.510  16
   3  -2  -8 5777.74 912.227  16
   3   2  -8 6342.61 621.296  18
  -3  -2   8 5675.92 756.565  17
  -3   2   8 6622.17 592.186  17
  -3   2   7 17748.9 922.577   2
  -3  -2   7 17574.7 1093.68   2
   3  -2  -7 16431.8 1421.64  16
   3   2  -7 15272.0 1187.12  16
  -3  -2   7 16046.5 1156.40  17
  -3   2   7 16170.4 889.807  17
   3   2  -7 17564.4 948.144  18
   3   2  -6 31214.5 1203.57  18
  -3  -2   6 29140.6 1450.47  17
  -3   2   6 34037.4 1229.35  17
  -3   2   6 28845.6 1130.96   2
  -3  -2   6 31746.4 1307.16   2
  -3  -2   6 29392.8 1208.09  19
   3   2  -6 27174.8 1477.97  16
   3  -2  -6 34464.2 1206.25   3
  -3  -2   5 300199. 3596.34   2
  -3   2   5 313142. 3613.93   2
  -3   2   5 305996. 2587.12   1
  -3  -2   5 300648. 4431.61  19
   3   2  -5 310537. 3847.65  18
  -3  -2   5 296731. 4351.75  17
  -3   2   5 304549. 3688.91  17
  -3  -2   4 21818.4 863.132   2
  -3   2   4 20091.8 948.454   2
  -3   2   4 20217.6 847.398   1
  -3  -2   4 19023.7 971.121  19
  -3  -2   4 19496.0 1116.92  17
   3   2  -4 20439.0 1153.64  18
  -3   2   4 18316.5 989.460  17
   3  -2  -4 21197.9 945.303   3
  -3   2   3 328494. 4765.18   2
  -3   2   3 325138. 2972.42   1
  -3  -2   3 341904. 3533.43  19
  -3  -2   3 340468. 4598.75  17
   3   2  -3 311622. 3763.75  18
  -3   2   3 309750. 4841.32  17
   3  -2  -3 344457. 4041.76  18
   3  -2  -3 338335. 3555.78   3
  -3  -2   2 2373.68 250.878   2
  -3   2   2 1992.68 206.028   1
  -3   2   2 2453.65 351.228   2
  -3  -2   2 2167.21 258.858  19
   3  -2  -2 2198.11 279.406   3
  -3  -2   2 2352.62 316.746  17
   3   2  -2 2392.71 265.056  18
   3  -2  -2 2404.15 297.053  18
  -3   2   1 47896.2 941.010   1
  -3   2   1 49297.9 1152.53   2
   3  -2  -1 50381.3 1095.73  18
   3   2  -1 47824.6 1005.84  18
  -3  -2   1 48406.1 1422.24  17
   3  -2  -1 49482.6 1234.29   3
  -3   2   0 13763.0 514.923   1
  -3  -2   0 12623.3 533.408  19
  -3  -2   0 14678.7 815.137   4
  -3   2   0 13442.4 559.425   2
   3   2   0 13447.1 499.738  18
   3   2   1 292905. 2314.21  18
  -3  -2  -1 283973. 4210.65   1
  -3   2  -1 284230. 2400.28   1
  -3  -2  -1 278821. 2420.99  19
   3  -2   1 287159. 2621.70   3
  -3  -2  -1 292264. 2240.52  16
  -3   2  -2 2946.21 258.105   1
   3   2   2 3177.51 347.795   2
  -3  -2  -2 3095.06 455.986   1
  -3  -2  -2 3083.75 255.754  19
  -3  -2  -2 3136.25 457.261   4
   3  -2   2 2977.63 267.457   3
  -3  -2  -2 2792.26 245.168  16
   3   2   3 393260. 6014.69   2
  -3   2  -3 434870. 3253.10   1
  -3  -2  -3 416846. 4919.92   1
  -3  -2  -3 426022. 2930.96  19
   3  -2   3 402576. 2983.38   3
  -3  -2  -3 404760. 4935.14   4
  -3   2  -3 398444. 5126.33   4
  -3  -2  -3 433575. 3270.21  16
  -3  -2  -4 597.947 125.767  19
  -3   2  -4 607.080 146.564   1
  -3  -2  -4 615.003 214.315   1
   3   2   4 335.608 225.908   2
  -3  -2  -4 515.784 205.239   4
  -3   2  -4 461.396 219.069   4
   3  -2   4 384.620 101.529   3
   3   2   4 580.237 107.013  17
  -3  -2  -4 694.773 167.364  16
  -3   2  -4 357.642 102.314  16
  -3   2  -5 21963.3 828.187   1
   3   2   5 20800.4 1492.76   2
  -3  -2  -5 25417.8 929.956   1
  -3  -2  -5 21297.9 755.213  19
  -3  -2  -5 23624.3 1230.30   4
  -3   2  -5 23267.4 1171.06   4
   3  -2   5 19448.2 642.983   3
  -3   2  -5 21598.9 840.161  16
  -3  -2  -5 20425.3 864.473  16
   3   2   5 21822.7 666.357  17
   3   2   6 4049.10 316.789  17
  -3   2  -6 4031.34 490.778   4
   3  -2   6 3984.70 289.993   3
  -3  -2  -6 4155.95 531.569   4
   3  -2   6 4254.15 414.083  17
  -3  -2  -6 4285.42 442.896  16
  -3   2  -6 4134.47 402.728  16
  -3   2  -6 3738.02 373.746   1
   3   2   6 3552.17 686.902   2
   3   2   7 160309. 2248.90  17
  -3  -2  -7 172122. 3461.41   4
  -3   2  -7 170914. 3228.86   4
   3  -2   7 171224. 2774.59  17
  -3  -2  -7 163286. 2927.04  16
  -3   2  -7 163053. 2731.04  16
  -3   2  -7 170856. 2686.81   1
   3   2   7 158160. 4553.51   2
   3   2   8 3572.25 367.495  17
   3  -2   8 3221.19 411.047  17
  -3   2  -8 3462.36 482.872   4
  -3  -2  -8 2907.49 481.389   4
  -3  -2  -8 3178.81 463.361  16
  -3   2  -8 3537.22 459.011  16
  -3   2  -8 3861.46 464.813   1
   3   2   8 3078.75 683.741   2
   3  -2   9 139718. 2847.28  17
  -3  -2  -9 139195. 3353.10   4
  -3   2  -9 142270. 3129.36   4
  -3  -2  -9 137397. 3228.04  16
  -3   2  -9 133754. 3006.74  16
   3   2   9 145975. 4480.19   2
   3  -2  10 28213.6 1379.28  17
   3   2  10 30705.1 1945.80   2
  -3   2 -10 30343.7 1594.94  16
  -3  -2 -10 29817.3 1653.17  16
  -3  -2 -10 34021.2 1738.28   4
  -3   2 -10 32065.3 1537.28   4
  -3   2 -11 185.303 82.8194  15
  -3  -2 -11 131.542 120.440  15
  -3  -2 -11 597.687 156.106   7
  -3   2 -11 652.942 125.884   7
  -3  -2 -11 350.782 205.406  12
  -3   2 -11 245.871 98.2641  12
  -3  -2 -11 1533.98 184.562  11
  -3   2 -11 341.080 112.176  11
  -3  -2 -11 784.512 159.231  10
  -3   2 -11 521.412 132.082  10
   3   2  11 38.5124 136.263   2
   3  -2  11 599.621 246.511  17
  -3   2 -11 495.901 223.664  16
  -3  -2 -11 229.591 230.034  16
  -3   2 -11 1714.11 362.332   4
  -3   2 -12 6724.74 443.182   7
  -3  -2 -12 6194.71 452.838   7
  -3   2 -12 6320.16 396.156  12
  -3  -2 -12 5941.39 463.905  12
   3  -2  12 5801.34 718.229  17
   3  -2  12 6056.27 927.628   2
   3   2  12 5815.71 779.383   2
  -3  -2 -12 6010.45 398.092  15
  -3  -2 -12 5727.39 891.821  16
  -3   2 -12 6066.45 343.189  15
  -3   2 -12 6182.32 433.326  10
  -3  -2 -12 6258.50 437.059  10
  -3  -2 -13 98186.6 1899.51  12
  -3   2 -13 98458.3 1604.07  12
  -3  -2 -13 97615.4 1803.16  10
  -3   2 -13 100971. 1825.41  10
  -3  -2 -13 98934.8 1584.80  15
  -3   2 -13 93118.5 1332.34  15
  -3  -2 -13 102257. 1928.68   7
  -3   2 -13 97654.9 1770.40   7
  -3   2 -14 102.072 131.221  10
  -3  -2 -14 275.556 152.594  10
  -3  -2 -14-38.4770 234.527   7
  -3   2 -14 119.763 132.048   7
  -3   2 -14 205.783 130.598  15
  -3   2 -14-207.395 200.307  12
  -3  -2 -14 262.590 211.535  12
  -3   2 -15 38190.0 1000.86  12
  -3  -2 -15 41539.8 1252.78  12
  -3  -2 -15 37244.3 1267.75   7
  -3   2 -15 35718.8 1139.00   7
  -3   2 -15 37739.8 1236.05  10
  -3  -2 -15 37863.7 1225.20  10
  -3   2 -16 845.134 213.476  10
  -3  -2 -16 1053.26 234.155  10
  -3   2 -16 999.724 192.540  12
  -3  -2 -16 1053.00 261.507   7
  -3   2 -16 997.702 194.892   7
  -3  -2 -17 910.006 217.073  10
  -3   2 -17 1442.18 230.096  10
  -3  -2 -17 1032.85 214.034   7
  -3   2 -17 1249.10 218.700   7
  -3  -2 -18 3745.48 240.298   7
  -3  -2 -18 3573.83 252.477  10
  -3   2 -18 3853.27 212.687  10
   3  -3 -18 1308.73 108.879   7
   3   3 -18 1146.61 116.639   7
   3  -3 -18 1311.15 125.990  10
   3   3 -18 1243.92 99.6090   9
   3  -3 -17 1399.45 151.834   7
   3   3 -17 1401.38 161.711   7
   3   3 -17 1067.03 127.782  10
   3  -3 -17 1086.26 149.998  10
   3   3 -17 1347.07 131.322   9
   3  -3 -16 69183.3 1148.50   7
   3   3 -16 72466.4 1004.74   9
   3   3 -16 70345.0 1220.19  10
   3  -3 -16 71961.6 1336.03  10
   3  -3 -15 157.115 102.480   7
   3   3 -15 301.411 99.9266   9
   3  -3 -15 266.186 82.8547   9
   3  -3 -15 285.791 147.377  10
   3   3 -15 254.905 119.362  10
   3  -3 -14 31013.2 956.437   7
   3   3 -14 30577.8 714.472  13
   3  -3 -14 30609.3 773.242   9
   3   3 -14 34018.7 1144.30  10
   3  -3 -14 32238.7 1155.32  10
   3   3 -14 31118.6 787.444   9
   3   3 -13 908.200 164.412   9
   3  -3 -13 933.825 156.749   9
   3  -3 -13 903.860 242.362  10
   3   3 -13 1369.16 262.598  10
   3  -3 -13 1073.68 212.792   7
   3   3 -13 1114.53 151.063  13
   3  -3 -12 9042.38 587.162   7
   3   3 -12 8653.91 403.969  13
   3  -3 -12 8387.53 429.380   9
   3   3 -12 9424.71 744.728  10
   3  -3 -12 9540.76 725.533  10
   3  -3 -12 8622.63 1179.22  16
  -3  -3  12 7541.69 1043.73  17
   3   3 -12 8423.29 461.676   9
  -3  -3  12 8702.78 945.672   2
  -3   3  12 7996.74 804.140   2
   3   3 -11 3565.27 270.581  13
   3   3 -11 3690.34 330.408   9
   3  -3 -11 3532.63 333.587  13
   3   3 -11 4082.19 538.737  10
   3  -3 -11 3916.34 291.141   9
   3  -3 -11 4162.82 514.412  10
  -3  -3  11 4539.64 733.822   2
  -3   3  11 3519.84 516.944   2
  -3  -3  11 3941.23 823.913  17
   3  -3 -11 3458.69 771.778  16
  -3   3  10 195186. 3632.57   2
  -3  -3  10 220078. 5058.48   2
   3  -3 -10 194425. 5670.22  16
  -3  -3  10 209667. 5349.71  17
  -3   3  10 204773. 3560.07  17
   3   3 -10 211997. 4023.59  18
  -3   3   9 1366.73 299.320   2
  -3  -3   9 1369.15 409.289   2
  -3   3   9 1603.33 311.946  17
   3  -3  -9 594.636 364.463  16
  -3  -3   9 1151.45 404.514  17
   3   3  -9 1459.24 320.544  18
  -3  -3   8 326932. 4934.48   2
  -3   3   8 318717. 4273.95   2
  -3  -3   8 334713. 3945.53  19
  -3  -3   8 314018. 5403.65  17
  -3   3   8 331416. 4196.13  17
   3   3  -8 314538. 4224.35  18
  -3   3   7 327.346 164.670   2
  -3  -3   7 287.531 164.246   2
   3   3  -7 381.683 173.354  18
  -3  -3   7 376.308 173.325  19
   3  -3  -7 194.326 295.904  16
  -3   3   7 587.306 205.952  17
  -3  -3   7 377.559 242.930  17
   3   3  -6 36562.9 1410.45  16
  -3  -3   6 37620.8 1306.62   2
  -3   3   6 33468.6 1316.38   2
   3   3  -6 35797.6 1381.83  18
  -3  -3   6 33210.8 1495.02  17
  -3   3   6 36958.8 1410.28  17
  -3  -3   6 33119.9 1503.88  19
   3  -3  -6 36283.8 1309.10   3
   3   3  -5 1555.29 291.285  16
  -3  -3   5 1811.72 358.610  17
   3  -3  -5 2117.73 322.000   3
  -3  -3   5 2345.05 360.002  19
   3   3  -5 1888.50 381.066  18
  -3   3   5 2656.86 437.671  17
  -3   3   5 2011.63 232.120   1
  -3   3   5 1932.34 347.262   2
   3  -3  -4 362870. 3821.88   3
  -3  -3   4 325684. 3557.01  19
  -3  -3   4 308738. 4211.37  17
   3   3  -4 315508. 4313.81  18
  -3   3   4 301706. 4622.77   2
  -3   3   4 352674. 3238.13   1
   3  -3  -3 31169.7 1071.38   3
  -3  -3   3 26079.5 912.838  19
  -3  -3   3 26171.3 1224.04  17
   3   3  -3 30767.3 1086.88  18
  -3   3   3 30429.5 808.770   1
  -3   3   3 32227.4 1584.76   2
   3  -3  -2 107019. 1887.73   3
  -3  -3   2 103788. 1704.74  19
   3   3  -2 105994. 1715.13  18
  -3  -3   2 114444. 2382.69  17
  -3   3   2 113240. 1487.07   1
  -3   3   2 102805. 2181.83   2
   3  -3  -1 26344.0 906.196   3
  -3  -3   1 27841.3 848.833  19
   3   3  -1 25926.2 783.573  18
  -3  -3   1 28114.5 988.259  17
  -3  -3   1 24849.1 407.417   2
  -3   3   1 27986.4 969.367   2
  -3   3   1 25988.3 724.504   1
  -3   3   0 140716. 2004.17   2
   3  -3   0 121552. 1885.25   3
  -3   3   0 132659. 1690.41   1
  -3  -3   0 136849. 1848.10  17
   3   3   0 126923. 1686.24  18
  -3  -3   0 136478. 1825.25  19
  -3  -3  -1 13332.3 491.307  16
   3  -3   1 12395.1 582.618   3
  -3   3  -1 13749.3 572.141   1
   3   3   1 13532.8 558.003  18
  -3  -3  -1 13094.6 553.424  19
  -3   3  -2 508005. 3633.43   1
   3   3   2 514211. 2101.77   2
  -3  -3  -2 515385. 3356.54  16
  -3  -3  -2 507351. 3393.12  19
   3   3   3 1492.69 187.371   2
  -3   3  -3 1568.29 224.743   1
  -3  -3  -3 1725.47 202.913  19
   3   3   3 1557.84 112.799  17
  -3  -3  -3 1600.13 210.773  16
  -3  -3  -3 1785.36 410.785   4
   3  -3   3 1399.67 200.306   3
  -3  -3  -4 168959. 2306.81  16
   3   3   4 172780. 3094.39   2
  -3   3  -4 173167. 2360.58   1
   3   3   4 164304. 1336.48  17
  -3  -3  -4 168085. 1963.04  19
   3  -3   4 168728. 2094.24   3
  -3  -3  -4 168349. 3564.01   4
  -3  -3  -5-58.1910 202.795   4
  -3   3  -5 95.5995 168.393   4
   3  -3   5 88.8126 72.2500   3
  -3  -3  -5 229.669 90.3095  19
   3   3   5 166.984 56.2916  17
  -3  -3  -5 330.082 142.120  16
  -3   3  -5 132.946 99.8207   1
   3   3   5 150.777 245.808   2
  -3  -3  -6 148004. 3406.38   4
   3  -3   6 135368. 1856.30   3
  -3   3  -6 141365. 3032.54   4
  -3   3  -6 138812. 2328.35  16
  -3  -3  -6 143198. 2566.02  16
   3  -3   6 143389. 2515.61  17
   3   3   6 149943. 5255.35   2
  -3   3  -6 141676. 2421.18   1
  -3   3  -7 23016.3 1230.71   4
  -3  -3  -7 24623.5 1422.72   4
   3  -3   7 22234.7 1064.89  17
  -3  -3  -7 22847.6 1129.58  16
  -3   3  -7 22623.1 1032.36  16
   3   3   7 22387.8 1698.03   2
  -3   3  -7 23628.9 1072.07   1
  -3   3  -8 260108. 4194.96   4
  -3  -3  -8 269422. 4835.18   4
  -3   3  -8 267944. 3941.92   1
   3  -3   8 273437. 3896.25  17
  -3  -3  -8 261897. 4172.51  16
  -3   3  -8 263525. 3851.59  16
  -3   3  -9 15519.1 1059.24   4
  -3  -3  -9 15975.7 1218.12   4
  -3   3  -9 16458.2 1099.05   1
   3   3   9 14706.0 1253.23   2
  -3   3  -9 15359.0 1036.03  16
  -3  -3  -9 13862.7 1058.91  16
   3  -3   9 14345.5 951.778  17
  -3   3 -10 63727.2 2193.18   4
  -3  -3 -10 61712.5 1230.15   7
  -3  -3 -10 61032.8 1416.34  12
  -3  -3 -10 58646.5 1040.48  11
  -3  -3 -10 59536.1 1160.33  10
   3   3  10 58218.9 2480.50   2
   3  -3  10 58814.4 2022.04  17
  -3  -3 -10 56627.7 2331.28  16
  -3  -3 -10 60569.3 1172.89  15
  -3   3 -10 59077.5 2267.56  16
   3  -3  11 60.1318 132.842  17
  -3  -3 -11 174.742 212.939  16
  -3  -3 -11 397.352 150.404  15
  -3   3 -11 350.448 92.4453  15
  -3   3 -11 80.2347 93.0242   4
  -3   3 -11 456.427 139.549  10
  -3  -3 -11 419.636 128.097  10
   3   3  11 47.4307 93.5183   2
  -3  -3 -11 54.7638 235.008  12
  -3   3 -11 489.772 144.906  12
  -3   3 -11 439.973 123.107   9
  -3   3 -11 376.055 90.2186   7
  -3  -3 -11 357.663 140.368   7
  -3  -3 -12 54650.7 1335.19   7
  -3   3 -12 51940.5 1190.45   7
  -3  -3 -12 51603.3 1236.93  10
  -3   3 -12 54142.8 1251.91  10
   3   3  12 50070.8 2269.15   2
   3  -3  12 52589.4 2673.14   2
   3  -3  12 51519.0 2131.05  17
  -3   3 -12 53085.1 1292.07   9
  -3  -3 -12 52552.0 1433.47  12
  -3   3 -12 52154.8 1088.68  12
  -3  -3 -12 51452.9 1175.42  15
  -3  -3 -12 50884.1 2634.92  16
  -3   3 -13 2796.00 319.864   9
  -3   3 -13 2686.79 302.456  10
  -3  -3 -13 2845.73 325.458  10
  -3   3 -13 2877.05 279.977  12
  -3  -3 -13 2844.28 401.632  12
  -3  -3 -13 2797.32 336.641   7
  -3   3 -13 3208.01 322.448   7
  -3   3 -14 93491.4 1837.76  10
  -3  -3 -14 93279.5 1839.07  10
  -3   3 -14 91547.9 1497.33  12
  -3  -3 -14 96363.8 2009.22  12
  -3  -3 -14 92201.2 1941.62   7
  -3   3 -14 87503.6 1684.13   7
  -3   3 -15-21.8962 188.823  12
  -3  -3 -15-142.101 194.351  10
  -3   3 -15-501.710 190.439  10
  -3   3 -15 148.939 124.881   7
  -3  -3 -15-14.7763 199.595   7
  -3  -3 -16 6909.51 533.257  10
  -3   3 -16 8115.32 593.166  10
  -3   3 -16 6923.98 392.998  12
  -3  -3 -16 6773.85 557.242   7
  -3   3 -16 6204.25 445.806   7
  -3  -3 -17 171.887 165.243  10
  -3   3 -17 158.217 109.244  10
  -3  -3 -17 142.200 119.446   7
  -3  -3 -18 23935.7 570.421  10
  -3  -3 -18 23589.7 539.448   7
   3  -4 -18 313.337 62.3851  10
   3   4 -18 467.246 64.0773   9
   3   4 -18 384.757 71.2472   7
   3  -4 -17 24396.6 609.632  10
   3   4 -17 25089.4 499.511   9
   3  -4 -17 24260.7 522.346   7
   3   4 -17 24404.8 584.395   7
   3   4 -16-2.99781 66.2651  10
   3  -4 -16 8.33966 87.8608  10
   3   4 -16 21.1547 69.6284   9
   3  -4 -16 86.1889 88.0628   7
   3   4 -15 47277.1 884.751   9
   3   4 -15 45623.1 1085.31  10
   3  -4 -15 46362.9 1199.23  10
   3  -4 -15 48391.3 1037.37   7
   3   4 -15 46595.5 795.392  13
   3  -4 -14 18612.4 862.824  10
   3   4 -14 18951.3 821.646  10
   3  -4 -14 18776.0 621.377   9
   3   4 -14 19127.7 618.210   9
   3   4 -14 17668.6 534.324  13
   3  -4 -14 18651.5 724.780   7
   3   4 -13 14334.6 590.826   9
   3  -4 -13 14466.9 691.315   7
   3   4 -13 14918.2 838.230  10
   3  -4 -13 14441.9 832.672  10
   3  -4 -13 14689.0 575.198   9
   3   4 -13 14138.3 511.075  13
   3   4 -12 4126.99 293.361  13
   3  -4 -12 4227.35 328.700   9
   3   4 -12 3610.59 485.769  10
   3  -4 -12 3864.21 477.199  10
   3  -4 -12 4246.58 409.828   7
   3   4 -12 3572.24 322.575   9
   3  -4 -12 4120.58 859.090  16
  -3  -4  12 3323.39 777.705  17
  -3   4  12 4230.15 601.788   2
  -3  -4  12 3171.42 595.789   2
   3  -4 -11 37907.7 2566.12  16
   3   4 -11 42620.6 971.936  13
   3   4 -11 51064.9 1924.73  10
   3  -4 -11 44268.6 1042.02   9
   3  -4 -11 44740.8 1673.03  10
   3  -4 -11 40151.2 1283.76   7
   3   4 -11 42408.3 1185.17   9
  -3  -4  11 43452.1 2372.65   2
  -3   4  11 46633.6 1911.53   2
  -3  -4  11 44164.8 2723.05  17
  -3   4  10 2315.68 434.830   2
  -3  -4  10 3058.14 603.331   2
   3   4 -10 2787.81 485.886  18
  -3  -4  10 2800.65 657.349  17
   3  -4 -10 2102.45 672.259  16
   3   4 -10 2723.31 325.964   9
   3  -4 -10 2788.79 276.333   9
   3  -4 -10 3066.34 426.021  10
   3   4 -10 2775.56 277.237  13
   3   4  -9 231986. 3842.66  18
  -3  -4   9 237070. 5176.70  17
  -3   4   9 250048. 4115.13  17
  -3  -4   9 245669. 4627.74   2
  -3   4   9 247583. 4156.24   2
  -3  -4   8 23163.8 1263.15   2
  -3   4   8 23507.7 1253.82   2
   3   4  -8 21292.0 1110.78  18
  -3  -4   8 20699.6 1403.55  17
   3  -4  -8 20831.5 1911.99  16
  -3  -4   8 24140.2 1254.59  19
   3   4  -7 1054.09 281.650  18
  -3  -4   7 679.891 278.920  19
  -3   4   7 980.025 277.171   2
   3  -4  -7 1018.58 442.883  16
  -3  -4   7 1138.65 317.726  17
  -3   4   6 167.670 170.849   2
   3   4  -6 310.784 159.785  18
  -3  -4   6 122.003 120.446  19
  -3  -4   6 424.223 196.491  17
   3  -4  -6 380.555 152.907   3
  -3   4   5 415142. 5769.48   2
  -3   4   5 413971. 3953.52   1
   3   4  -5 395832. 5712.03  18
  -3  -4   5 391643. 4882.37  17
  -3  -4   5 435079. 4410.66  19
   3  -4  -5 423748. 4767.99   3
  -3   4   4 2524.92 616.235   2
  -3   4   4 2041.41 227.421   1
  -3  -4   4 2397.57 372.773  17
   3   4  -4 2027.65 351.989  18
  -3  -4   4 2983.63 344.541  19
   3  -4  -4 1934.30 318.309   3
  -3   4   3 346238. 2734.55   1
   3   4  -3 354039. 3667.70  18
  -3  -4   3 344910. 3391.33  19
   3  -4  -3 345491. 3814.49   3
  -3   4   2 2772.73 247.019   1
  -3   4   2 2601.45 381.461   2
  -3  -4   2 3221.22 465.352  17
   3   4  -2 2998.50 306.868  18
  -3  -4   2 3060.72 313.987  19
   3  -4  -2 3279.85 365.645   3
  -3   4   1 25648.6 775.081   1
   3   4  -1 24423.6 822.205  18
  -3  -4   1 26396.8 974.570  17
  -3  -4   1 24781.7 857.239  19
  -3   4   1 24484.9 985.189   2
   3  -4  -1 24006.3 924.492   3
  -3   4   0 33198.5 919.479   1
  -3  -4   0 32793.4 964.298  19
  -3  -4   0 34806.0 938.271  17
   3   4   0 32572.8 940.599  18
  -3   4   0 31775.2 1061.66   2
   3  -4   0 32479.7 1058.90   3
  -3  -4  -1 317605. 2443.30  16
   3   4   1 313227. 2996.15  18
   3  -4   1 317960. 3215.38   3
  -3  -4  -2 12805.8 547.669  16
  -3   4  -2 13514.2 644.971   1
   3   4   2 13110.2 357.330   2
  -3  -4  -2 14664.2 637.458  19
  -3   4  -2 12640.3 275.604  18
   3  -4   2 13977.0 670.441   3
   3   4   3 412283. 2593.49   2
  -3   4  -3 432619. 3821.94   1
  -3  -4  -3 427213. 3444.65  19
  -3  -4  -3 415599. 3431.29  16
   3  -4   3 420193. 3661.63   3
  -3  -4  -4 47661.3 1284.23  16
   3   4   4 46317.9 1129.99   2
  -3   4  -4 48992.5 1360.73   1
  -3  -4  -4 48760.0 1178.74  19
   3  -4   4 45503.2 1032.36  19
   3  -4   4 46598.3 1217.81   3
  -3   4  -5 162.181 146.284   1
   3   4   5 151.547 113.046   2
  -3  -4  -5 331.462 126.329  16
  -3  -4  -5 411.149 134.675  19
   3  -4   5 520.364 113.519  19
  -3   4  -5 121.536 156.663   4
   3  -4   5 120.664 103.128   3
  -3  -4  -6 16837.3 919.205  16
   3  -4   6 17806.0 937.473  17
   3   4   6 18792.8 1220.35   2
  -3   4  -6 18048.2 931.288   1
   3  -4   6 17508.1 749.769   3
  -3   4  -6 17716.7 1147.52   4
  -3  -4  -7 139022. 2855.03  16
   3  -4   7 145807. 2830.30  17
   3   4   7 149981. 4436.06   2
  -3   4  -7 142013. 2800.18   1
  -3   4  -7 146949. 3260.99   4
   3  -4   8 291.998 167.278  17
  -3  -4  -8 606.611 232.198  16
   3   4   8 225.557 263.688   2
  -3   4  -8 532.540 216.588   1
  -3   4  -8 438.823 217.936   4
  -3   4  -9 122453. 3149.50   1
  -3   4  -9 123843. 3066.59   4
   3  -4   9 121662. 2881.19  17
  -3  -4  -9 121565. 3181.63  16
  -3   4 -10 149.792 93.5752   9
   3  -4  10 10.8116 144.978  17
  -3  -4 -10 609.120 272.624  16
  -3  -4 -10 525.740 184.475  15
  -3   4 -10 170.580 177.510   4
  -3   4 -10 248.268 99.1816  12
  -3  -4 -10 247.031 88.1616  11
  -3  -4 -10 19.2860 221.575  12
  -3  -4 -10 237.601 105.701  10
  -3   4 -10 377.090 170.438   5
  -3  -4 -10 211.615 103.039   6
   3   4  10-235.214 176.176   2
  -3  -4 -10 74.4273 137.976   7
  -3  -4 -11 13164.0 624.711   7
   3  -4  11 13294.7 1052.92  17
  -3  -4 -11 13026.7 746.043  12
  -3   4 -11 13203.1 517.479  12
  -3   4 -11 13525.7 585.194  10
  -3  -4 -11 13022.3 586.517  10
  -3  -4 -11 13831.9 641.898   6
  -3   4 -11 13494.0 570.887   9
  -3  -4 -11 13996.1 671.596  15
  -3  -4 -11 12300.3 1199.58  16
  -3  -4 -12 1334.56 347.663  12
  -3   4 -12 867.815 162.555  12
  -3   4 -12 534.821 121.385  10
  -3  -4 -12 947.529 190.590  10
  -3  -4 -12 1229.00 233.737   6
  -3   4 -12 1169.88 203.918   9
  -3  -4 -12 1076.85 204.528   7
  -3   4 -13 100952. 1790.83  10
  -3  -4 -13 100852. 1800.87  10
  -3  -4 -13 103509. 1982.80   7
  -3   4 -13 95939.8 1855.47   9
  -3  -4 -13 104154. 2184.96  12
  -3   4 -13 102133. 1520.24  12
  -3   4 -14 99.7990 119.296  12
  -3  -4 -14-38.7690 161.550  10
  -3   4 -14 85.1964 120.543  10
  -3   4 -14 53.5583 108.957   9
  -3  -4 -14 81.8327 158.146   7
  -3  -4 -15 38050.8 1288.98   7
  -3   4 -15 36992.1 889.052  12
  -3   4 -15 37437.9 1206.10  10
  -3  -4 -15 38312.1 1190.17  10
  -3  -4 -16 4296.13 449.408   7
  -3   4 -16 4336.60 296.557  12
  -3  -4 -16 4342.13 415.183  10
  -3   4 -16 5591.05 489.054  10
  -3  -4 -17 2710.95 265.985   7
  -3  -4 -17 2949.63 286.405  10
  -3  -4 -18 1979.41 144.060   7
   3  -5 -17 3825.90 182.190   7
   3   5 -17 3812.53 219.325   7
   3   5 -17 4041.67 195.312   9
   3  -5 -17 3560.49 211.007  10
   3  -5 -16 61910.4 909.577   7
   3   5 -16 61100.8 861.761   9
   3  -5 -15 1833.01 197.269   7
   3   5 -15 1991.27 193.223   9
   3  -5 -15 1711.13 232.584  10
   3   5 -15 1907.66 161.896  13
   3  -5 -14 40587.3 1001.40   6
   3  -5 -14 39268.7 1200.08  10
   3   5 -14 40967.6 910.188   9
   3   5 -14 39497.3 789.942  13
   3  -5 -14 39486.0 983.106   7
   3   5 -13 324.544 133.270   9
   3  -5 -13 259.992 128.724   7
   3  -5 -13 1.91639 198.159  10
   3   5 -13 331.767 91.6050  13
   3   5 -12 7158.92 479.732   9
   3  -5 -12 6763.48 497.126   7
   3  -5 -12 7228.16 446.219   9
   3  -5 -12 6987.12 635.183  10
   3   5 -12 7303.79 399.901  13
   3   5 -11 1877.15 228.557  13
   3  -5 -11 1612.36 343.045  10
   3  -5 -11 1971.38 296.898   7
  -3  -5  11 824.725 484.078  17
   3  -5 -11 551.249 337.497  16
   3  -5 -11 1463.26 222.457   9
   3   5 -11 1615.88 287.455   9
  -3   5  11 1826.57 407.342   2
  -3  -5  11 2282.36 533.903   2
  -3  -5  10 246316. 5127.34   2
  -3   5  10 256047. 4611.67   2
   3   5 -10 249514. 4224.26  18
  -3  -5  10 242994. 5893.07  17
   3  -5 -10 227474. 6657.94  16
   3   5 -10 245012. 2868.83   9
   3  -5 -10 256485. 2847.56   9
   3  -5 -10 272420. 3824.78  10
   3   5 -10 253452. 2829.50  13
   3  -5  -9 3468.35 857.699  16
  -3  -5   9 3177.39 631.641  17
   3   5  -9 3874.77 507.452  18
  -3  -5   9 4524.08 618.599   2
  -3   5   9 4891.63 639.821   2
   3   5  -8 146476. 3000.12  18
  -3  -5   8 152021. 3879.53  17
  -3  -5   8 158343. 3977.74  19
   3  -5  -8 152263. 5456.22  16
  -3   5   8 156815. 3549.62   2
  -3  -5   7 44705.4 1946.89  17
   3   5  -7 46167.7 1762.30  18
  -3  -5   7 46475.9 1875.40  19
   3  -5  -7 44298.0 2692.81  16
  -3   5   7 50269.5 2059.23   2
  -3   5   6 8468.94 910.073   2
   3   5  -6 9521.10 941.722  18
  -3  -5   6 8086.81 778.570  17
   3  -5  -6 8616.32 777.344   3
   3  -5  -6 7929.66 1062.27  16
  -3  -5   6 8229.29 689.540  19
   3   5  -5 21346.7 1291.43  18
  -3  -5   5 22176.9 1197.73  17
   3  -5  -5 22932.9 1184.01   3
  -3   5   5 20704.9 1640.64   2
  -3  -5   5 22083.1 1006.78  19
  -3  -5   4 144701. 2906.18  17
   3   5  -4 153167. 2844.92  18
   3  -5  -4 145024. 2869.48   3
  -3   5   4 150295. 1918.48   1
  -3  -5   4 145550. 2422.93  19
  -3  -5   3 28467.4 1266.69  17
   3   5  -3 29357.9 1084.24  18
   3  -5  -3 28848.9 1199.17   3
  -3   5   3 29403.3 846.170   1
  -3  -5   3 28241.8 1026.44  19
  -3  -5   2 88242.5 2365.84  17
   3   5  -2 80567.9 1673.63  18
   3  -5  -2 86267.9 1963.89   3
  -3   5   2 81164.7 2152.75   2
  -3   5   2 88019.3 1504.93   1
  -3  -5   2 89893.1 1776.28  19
  -3  -5   1 28279.8 1028.26  17
   3   5  -1 26303.5 930.805  18
   3  -5  -1 29265.6 1102.36   3
  -3   5   1 27400.1 873.465   1
  -3  -5   1 26614.1 950.540  19
  -3  -5   0 70734.4 1258.64  17
   3   5   0 71194.9 1527.85  18
  -3   5   0 65742.8 1678.43   2
   3  -5   0 70140.4 1675.19   3
  -3  -5   0 67330.3 1498.56  19
  -3   5   0 64999.2 1398.96   1
  -3   5  -1 76997.0 1591.75   1
   3   5   1 77695.0 1642.73  18
  -3  -5  -1 82411.8 1270.61  16
  -3  -5  -1 82914.4 1660.64  19
   3  -5   1 80374.4 1772.77   3
  -3   5  -2 566060. 4500.46   1
  -3  -5  -2 563361. 3747.15  16
  -3  -5  -2 557498. 4328.91  19
  -3   5  -3 1689.58 266.965   1
   3   5   3 1431.83 159.945   2
   3  -5   3 1789.49 273.911   3
  -3  -5  -3 1522.58 220.296  16
  -3  -5  -3 1904.74 263.114  19
   3   5   4 98688.8 1552.10   2
  -3   5  -4 96199.4 2044.32   1
   3  -5   4 91924.4 1688.81  19
  -3  -5  -4 97125.5 1889.28  16
  -3  -5  -4 99003.7 1871.04  19
   3  -5   4 96250.7 1927.46   3
  -3   5  -5 33677.9 1284.85   1
   3   5   5 32259.0 1067.86   2
  -3  -5  -5 32562.2 1207.39  16
   3  -5   5 34511.2 1306.28  17
   3  -5   5 33399.7 971.022  19
  -3  -5  -5 32761.7 1102.54  19
   3  -5   5 30142.0 1077.76   3
  -3   5  -6 40402.5 1497.34   1
   3   5   6 42676.2 1490.81   2
   3  -5   6 39422.9 1494.00  17
  -3  -5  -6 39883.0 1449.47  16
  -3  -5  -6 40646.3 1261.35  19
  -3   5  -6 40591.9 1846.30   4
   3  -5   6 40913.9 1249.08   3
  -3   5  -7 2655.06 431.070   1
   3   5   7 3607.57 511.461   2
   3  -5   7 3011.30 352.110   3
  -3   5  -7 3122.59 508.308   4
  -3  -5  -7 2856.10 437.707  16
   3  -5   7 3073.48 438.830  17
  -3   5  -8 172203. 3727.04   4
  -3  -5  -8 164354. 3500.27  16
  -3   5  -8 167609. 3562.21   1
   3  -5   8 168628. 3372.86  17
  -3  -5  -9 2408.29 475.541  16
  -3  -5  -9 3895.01 395.953  15
   3  -5   9 2425.66 419.549  17
  -3  -5  -9 2587.94 256.019   7
  -3   5  -9 3045.04 510.697   4
  -3  -5  -9 2451.26 378.632  12
  -3   5  -9 2371.38 457.671   1
  -3   5  -9 2549.65 281.726   5
  -3  -5  -9 2670.58 259.904   6
  -3   5  -9 2521.08 224.645   9
  -3  -5 -10 39018.6 1121.57  15
  -3  -5 -10 35041.7 1907.66  16
  -3  -5 -10 36071.6 989.515   7
  -3   5 -10 39121.8 1793.76   4
  -3   5 -10 34535.6 812.628  12
  -3  -5 -10 37320.1 1374.98  12
   3  -5  10 36074.0 1713.59  17
  -3   5 -10 35193.1 1142.06   5
  -3  -5 -10 37091.3 1000.10   6
  -3  -5 -10 37198.5 923.459  10
  -3   5 -10 36685.4 871.869   9
  -3   5 -11 2327.19 244.222   9
  -3   5 -11 2614.34 243.651  12
   3  -5  11 1947.49 446.299  17
  -3  -5 -11 1547.14 423.619  16
  -3  -5 -11 2321.74 282.121   6
  -3   5 -11 2694.17 351.173   5
  -3  -5 -11 2329.05 269.551   7
  -3  -5 -11 2429.99 257.958  10
  -3   5 -12 18518.0 620.304  12
  -3  -5 -12 19065.3 820.205   7
  -3  -5 -12 19161.8 833.994   6
  -3  -5 -12 18716.5 732.970  10
  -3   5 -12 19696.1 740.083   9
  -3   5 -13 10879.4 474.777  12
  -3   5 -13 10626.1 599.800   9
  -3  -5 -13 9816.02 642.582   6
  -3  -5 -13 10266.5 638.884   7
  -3  -5 -13 9904.16 561.360  10
  -3   5 -14 102427. 1440.25  12
  -3  -5 -14 104358. 1853.63  10
  -3  -5 -14 102781. 2071.46   7
  -3  -5 -14 103226. 2150.42   6
  -3   5 -14 100416. 1805.69   9
  -3   5 -15-65.1944 150.394  12
  -3   5 -15 61.0843 114.654   9
  -3  -5 -15 182.552 172.079   7
  -3  -5 -15-24.5267 175.790  10
  -3  -5 -16 1318.58 237.789   7
  -3  -5 -16 1290.22 220.469  10
  -3  -5 -17 339.667 95.4362   7
  -3  -5 -17 427.695 97.1212  10
   3   6 -17 15255.6 369.467   7
   3   6 -17 15423.9 345.560   9
   3  -6 -16 2728.33 166.818   7
   3   6 -16 2849.95 209.299   7
   3  -6 -16 2586.56 197.059  10
   3   6 -16 2796.84 184.638   9
   3   6 -15 65170.3 866.184  13
   3  -6 -15 63112.3 1192.56  10
   3   6 -15 65913.1 991.475   9
   3  -6 -15 64031.0 977.117   7
   3  -6 -15 65635.2 1022.67   6
   3  -6 -14 8042.28 445.657   6
   3  -6 -14 7605.76 501.607  10
   3  -6 -14 7693.95 401.682   7
   3   6 -14 7515.19 392.001   9
   3   6 -14 7692.43 343.836  13
   3  -6 -13 3060.92 380.815  10
   3   6 -13 3513.68 260.073  13
   3  -6 -13 3486.25 315.104   7
   3   6 -13 3153.51 292.862   9
   3  -6 -12 2272.35 362.758  10
   3   6 -12 2434.11 307.195   9
   3   6 -12 2799.37 260.521  13
   3  -6 -12 3001.25 321.051   7
  -3   6  11 96774.2 3040.38   2
   3   6 -11 97634.8 1672.52  13
  -3  -6  11 95528.9 1656.00  20
   3  -6 -11 99645.0 2457.76  10
  -3  -6  11 91583.5 4071.93  17
   3   6 -11 95826.8 1980.14   9
   3  -6 -10 29173.9 2521.86  16
  -3   6  10 33331.1 1784.12   2
   3   6 -10 31715.5 1112.63  13
   3   6 -10 30884.9 1053.39   5
  -3  -6  10 29751.1 1017.74  20
   3  -6 -10 31831.1 1275.58  10
  -3  -6  10 28182.6 2071.90  17
   3   6 -10 29308.3 988.875   9
  -3  -6   9 88957.2 2687.11   2
  -3   6   9 85921.4 2880.54   2
   3   6  -9 82410.9 1619.96  13
  -3  -6   9 86129.6 1565.37  20
   3   6  -9 83818.0 1562.71   5
   3  -6  -9 78377.2 4189.76  16
   3   6  -9 81385.7 1473.12   9
  -3  -6   9 82165.7 3237.15  17
   3   6  -9 83907.3 2348.93  18
   3  -6  -8 23485.0 2189.87  16
  -3  -6   8 23773.1 1553.12  19
  -3   6   8 26977.5 1647.42   2
   3   6  -8 25695.8 1317.23  18
  -3  -6   8 25676.2 1669.15  17
   3  -6  -7 3718.12 817.706  16
  -3  -6   7 3260.84 498.944  19
  -3   6   7 3279.93 592.715   2
   3   6  -7 2648.66 471.911  18
  -3  -6   7 3601.76 572.314  17
   3  -6  -6 18520.0 1247.28   3
   3  -6  -6 17003.6 1560.69  16
  -3   6   6 15404.5 1473.15   2
  -3  -6   6 15710.7 1130.48  17
   3   6  -6 15850.0 1375.70  18
  -3  -6   6 16248.5 978.236  19
   3  -6  -5 170676. 3572.45   3
  -3   6   5 176252. 5529.51   2
   3   6  -5 165911. 3669.19  18
  -3  -6   5 155904. 3339.26  17
  -3  -6   5 163264. 2856.09  19
   3  -6  -4 14174.3 962.092   3
  -3   6   4 14816.2 630.331   1
  -3   6   4 15745.5 1384.63   2
  -3  -6   4 12745.6 923.390  17
   3   6  -4 12976.8 863.075  18
  -3  -6   4 13821.5 796.361  19
   3  -6  -3 276507. 4003.77   3
  -3   6   3 268256. 2754.65   1
  -3   6   3 283574. 4884.60   2
   3   6  -3 269204. 3485.75  18
  -3  -6   3 276834. 3451.83  19
   3  -6  -2 6304.16 591.918   3
  -3   6   2 5480.46 607.852   2
  -3   6   2 5767.20 424.668   1
   3   6  -2 5455.53 473.669  18
  -3  -6   2 6106.65 669.479  17
  -3  -6   2 6213.91 512.227  19
   3  -6  -1 201.751 160.740   3
  -3   6   1 335.545 167.242   2
  -3   6   1 441.884 137.192   1
   3   6  -1 224.259 138.399  18
  -3  -6   1 468.288 159.633  19
   3  -6   0 29711.1 1204.97   3
  -3   6   0 30524.5 1264.75   2
  -3  -6   0 30348.2 1105.94  19
  -3   6   0 27307.7 989.655   1
   3   6   0 29871.0 1087.35  18
   3  -6   1 179600. 2912.03   3
  -3  -6  -1 174404. 1894.82  16
  -3  -6  -1 178142. 2672.11  19
  -3   6  -1 169541. 2561.24   1
   3   6   1 173598. 2683.64  18
  -3  -6  -2 2151.06 245.196  16
  -3  -6  -2 1982.12 296.402  19
  -3   6  -2 1895.97 297.569   1
   3  -6   2 1870.93 305.741   3
   3  -6   3 196198. 3026.18   3
  -3  -6  -3 186653. 2473.94  16
  -3  -6  -3 195565. 2856.25  19
  -3   6  -3 189182. 2960.91   1
   3  -6   3 184000. 2723.05  19
   3  -6   4 7978.36 556.898  19
  -3  -6  -4 8654.12 615.289  19
   3  -6   4 7569.27 602.615   3
  -3  -6  -4 7929.16 570.180  16
  -3   6  -4 8067.36 652.464   1
  -3  -6  -5 31996.1 1203.39  19
   3  -6   5 33827.0 1106.21  19
   3  -6   5 34102.3 1257.77   3
   3  -6   5 33617.1 1370.13  17
  -3  -6  -5 33536.8 1265.37  16
  -3   6  -5 32946.3 1371.83   1
  -3  -6  -6 31617.1 1223.76  19
  -3   6  -6 32067.3 1752.68   4
   3  -6   6 31394.8 1203.62   3
  -3   6  -6 31404.3 1421.69   1
  -3  -6  -6 29660.2 1308.73  16
   3  -6   6 32051.5 1406.54  17
  -3   6  -7 187754. 4144.48   4
  -3  -6  -7 189337. 3580.95  16
   3  -6   7 199765. 3660.27  17
  -3   6  -7 197460. 3792.76   1
  -3  -6  -8 216.528 102.965   7
  -3   6  -8 102.117 128.599   4
  -3   6  -8 230.044 97.6490   9
  -3   6  -8 141.731 174.332   1
  -3  -6  -8 235.316 103.326   6
  -3   6  -8 341.936 118.051   5
  -3  -6  -8 188.634 162.884  16
   3  -6   8 158.770 125.718  17
  -3   6  -9 56201.2 1284.84   5
  -3  -6  -9 57882.8 1212.41   6
  -3   6  -9 59431.8 2452.69   1
   3  -6   9 57493.2 2152.87  17
  -3  -6  -9 56927.4 1215.09   7
  -3  -6  -9 59054.6 1773.85  12
  -3   6  -9 55298.9 1017.02  12
  -3   6  -9 56569.2 1063.71   9
  -3   6  -9 57522.4 2252.60   4
  -3  -6  -9 56449.4 2284.48  16
  -3  -6 -10 489.705 140.422   7
  -3   6 -10 770.449 137.415  12
   3  -6  10 667.914 306.073  17
  -3  -6 -10 426.187 207.396  16
  -3  -6 -10 743.872 166.564   6
  -3   6 -10 1061.37 208.058   5
  -3  -6 -10 622.644 128.283  10
  -3   6 -10 808.856 144.993   9
  -3   6 -11 534.517 112.144  12
  -3   6 -11 697.924 140.558   9
  -3   6 -11 1121.04 243.271   5
  -3  -6 -11 787.913 188.463   6
  -3  -6 -11 799.224 143.534  10
  -3  -6 -11 625.943 164.534   7
  -3   6 -12 18113.2 592.206  12
  -3   6 -12 17090.4 678.924   9
  -3  -6 -12 17745.2 809.899   6
  -3  -6 -12 17176.4 684.715  10
  -3  -6 -12 18321.0 812.704   7
  -3   6 -13 70845.3 1157.76  12
  -3   6 -13 70600.2 1465.32   9
  -3  -6 -13 68538.8 1677.98   6
  -3  -6 -13 68836.1 1412.73  10
  -3  -6 -13 72899.5 1689.17   7
  -3   6 -14 50.3204 118.106  12
  -3   6 -14 137.959 140.125   9
  -3  -6 -14-16.4086 122.475  10
  -3  -6 -14 187.293 152.856   7
  -3  -6 -14 293.619 184.616   6
  -3   6 -15 27422.6 682.620   9
  -3  -6 -15 30135.7 1120.62   7
  -3  -6 -15 29035.3 951.780  10
  -3  -6 -16 2171.18 249.963   7
  -3   6 -16 2101.67 139.926   9
  -3  -6 -16 2000.83 234.074  10
  -3  -6 -17 1335.56 134.916   7
   3   7 -17 2423.66 124.869   9
   3   7 -16 36508.8 634.080   7
   3   7 -16 36567.3 585.157   9
   3   7 -15 1182.09 141.788   9
   3  -7 -15 786.275 121.038  10
   3   7 -15 1156.44 116.765  13
   3  -7 -15 1116.74 144.908   6
   3  -7 -14 53408.4 1110.72   6
   3  -7 -14 52185.8 1136.93  10
   3   7 -14 52462.5 972.451   9
   3   7 -14 50545.4 836.356  13
   3  -7 -13 268.433 133.251  10
   3   7 -13 116.590 113.071   9
   3   7 -13 202.282 87.8984  13
   3   7 -12 14296.2 687.041   9
   3   7 -12 14690.8 585.627  13
  -3  -7  11 288.273 152.068  20
   3   7 -11 236.022 135.980  13
   3   7 -11 618.996 218.262   9
   3   7 -10 176646. 2634.51  13
  -3  -7  10 176134. 2467.41  20
   3   7 -10 170635. 2439.82   5
  -3  -7  10 174536. 5344.89  17
   3   7 -10 178849. 2411.66   9
   3  -7 -10 167318. 6202.52  16
  -3   7   9 7600.35 934.509   2
   3   7  -9 7198.92 485.706  13
  -3  -7   9 7280.58 464.339  20
   3   7  -9 7068.29 455.238   5
  -3  -7   9 5904.20 939.011  17
   3   7  -9 7879.51 472.166   9
   3  -7  -9 7959.78 1440.01  16
  -3   7   8 86065.6 3307.84   2
   3   7  -8 80757.2 1446.41  13
  -3  -7   8 85969.1 1445.64  20
   3   7  -8 84494.1 1409.54   5
   3   7  -8 79968.6 2395.72  18
  -3  -7   8 77480.2 3070.68  17
   3   7  -8 82325.2 1378.45   9
   3  -7  -8 77661.1 4012.12  16
  -3  -7   7 34245.8 1625.36  19
   3   7  -7 37814.7 896.830  13
   3  -7  -7 37397.1 2536.46  16
   3   7  -7 35061.5 1759.17  18
  -3  -7   7 36249.2 1960.07  17
  -3   7   7 32244.1 2224.67   2
  -3   7   6 7532.71 1290.94   2
   3  -7  -6 8901.48 1012.23   3
   3   7  -6 8060.49 1015.56  18
  -3  -7   6 7334.38 826.754  17
  -3  -7   6 7943.98 722.433  19
   3  -7  -6 7937.18 1071.84  16
   3  -7  -5 306.941 189.275   3
   3  -7  -5-412.245 287.916  16
  -3  -7   5 255.400 212.698  17
  -3   7   5-418.028 349.309   2
   3   7  -5 460.310 228.194  18
  -3  -7   5 81.9414 132.921  19
   3  -7  -4 168561. 3683.70   3
  -3   7   4 161949. 4459.70   2
  -3  -7   4 165117. 2973.43  19
   3   7  -4 173808. 3325.73  18
   3  -7  -3 3609.81 513.696   3
  -3   7   3 3624.32 583.432   2
  -3   7   3 3652.50 356.741   1
  -3  -7   3 3237.18 422.854  19
  -3  -7   3 3759.73 556.026  17
   3   7  -3 3936.10 461.443  18
   3  -7  -2 99473.0 2547.69   3
  -3   7   2 98181.2 2710.48   2
  -3   7   2 99653.0 1887.42   1
  -3  -7   2 91563.9 2120.52  19
   3   7  -2 100138. 2174.90  18
   3  -7  -1 35085.8 1481.23   3
  -3   7   1 38280.5 1587.47   2
  -3   7   1 33575.9 1146.23   1
  -3  -7   1 34907.4 1304.19  19
   3   7  -1 34689.1 1269.15  18
   3  -7   0 180231. 3267.35   3
  -3   7   0 179747. 2749.25   1
   3   7   0 183535. 2930.24  18
   3  -7   1 46667.2 1620.59   3
  -3   7  -1 42854.9 1395.21   1
  -3  -7  -1 42388.6 1431.91  19
   3   7   1 44538.6 1479.36  18
   3  -7   2 163052. 3023.88   3
  -3   7  -2 161823. 2825.94   1
   3  -7   2 164839. 2909.15  19
   3   7   2 167334. 2941.16  18
   3  -7   3 233.788 153.202   3
  -3  -7  -3 196.635 108.230  16
  -3  -7  -3 162.745 118.447  19
  -3   7  -3 508.568 202.593   1
   3  -7   4 64272.0 1754.91  19
  -3  -7  -4 72737.4 1949.62  19
   3  -7   4 68051.6 1996.64  17
  -3  -7  -4 65253.6 1664.24  16
   3  -7   4 67297.8 1929.40   3
  -3   7  -4 69319.1 2029.90   1
  -3  -7  -5 19618.6 1039.04  19
  -3  -7  -5 20929.0 1038.68  16
   3  -7   5 20250.5 1131.67  17
   3  -7   5 21038.0 1075.53   3
  -3   7  -5 20100.8 1159.27   1
  -3  -7  -6 10982.1 797.048  19
   3  -7   6 10723.6 852.376  17
  -3  -7  -6 10977.2 820.954  16
   3  -7   6 10661.6 776.399   3
  -3   7  -6 10275.6 878.514   1
  -3  -7  -7 1043.37 174.578   7
  -3  -7  -7 713.601 272.875  16
   3  -7   7 1023.29 302.170  17
  -3   7  -7 1081.50 324.978   1
  -3  -7  -7 1186.62 177.760   6
  -3   7  -7 1187.30 179.009   5
   3  -7   7 1160.71 254.291   3
  -3   7  -7 704.919 283.950   4
   3  -7   8 215279. 4143.87  17
  -3   7  -8 212685. 4546.48   4
  -3  -7  -8 205141. 2241.36   7
  -3   7  -8 207695. 1979.98  12
  -3  -7  -8 195870. 4027.00  16
  -3   7  -8 201560. 4406.11   1
  -3   7  -8 202427. 2012.20   9
  -3   7  -8 209017. 2316.75   5
  -3  -7  -8 209061. 2263.92   6
   3  -7   9 7003.87 796.138  17
  -3  -7  -9 7224.41 821.178  16
  -3  -7  -9 7626.08 467.223   7
  -3   7  -9 7761.11 394.538  12
  -3   7  -9 7556.84 945.675   1
  -3   7  -9 7573.10 413.742   9
  -3   7  -9 7446.86 826.229   4
  -3  -7  -9 7790.98 463.809   6
  -3   7  -9 7661.61 477.873   5
  -3  -7 -10 18773.5 756.526   7
  -3  -7 -10 18601.8 753.049   6
  -3   7 -10 19837.9 829.501   5
  -3   7 -10 17920.9 583.472  12
  -3   7 -10 18268.6 641.363   9
  -3   7 -11 25962.0 695.728  12
  -3   7 -11 26353.0 1037.34   5
  -3  -7 -11 28262.8 969.898   6
  -3  -7 -11 27646.6 958.968   7
  -3   7 -11 27943.4 817.042   9
  -3   7 -12 49764.9 944.279  12
  -3   7 -12 51026.4 1145.80   9
  -3   7 -12 46712.6 1459.92   5
  -3  -7 -12 48826.8 1334.20   6
  -3  -7 -12 49270.3 1338.91   7
  -3   7 -13 6908.97 345.112  12
  -3   7 -13 6860.29 456.912   9
  -3  -7 -13 6311.41 410.178  10
  -3  -7 -13 6811.36 531.667   7
  -3  -7 -13 6239.22 505.666   6
  -3   7 -14 58438.8 1355.91   9
  -3  -7 -14 58187.9 1528.24   7
  -3  -7 -14 57387.3 1541.93   6
  -3   7 -15 138.563 82.4412   9
  -3  -7 -15 220.542 150.209   7
  -3  -7 -15 303.708 106.388   6
  -3  -7 -16 8716.10 388.416   7
  -3   7 -16 7693.48 234.643   9
   3   8 -16 240.467 62.3778   9
   3   8 -15 48517.3 732.817   9
   3  -8 -15 49481.1 788.148   6
   3   8 -14 10400.0 359.435  13
   3   8 -14 10576.0 408.256   9
   3  -8 -14 10306.6 463.792   6
   3   8 -13 20921.8 591.896  13
   3   8 -13 21035.2 677.685   9
   3  -8 -13 22010.2 813.874   6
   3   8 -12 25479.8 763.344  13
   3   8 -12 25394.5 885.812   9
   3   8 -11 84769.3 1646.95  13
  -3  -8  11 84951.0 1720.84  20
   3   8 -11 89189.8 1857.64   9
  -3   8  10 196.265 233.569  13
   3   8 -10 242.329 146.841  13
   3   8 -10 539.385 164.431   5
   3   8 -10 313.149 152.628   9
  -3  -8  10 315.434 159.836  20
  -3  -8   9 71546.9 1467.31  20
   3   8  -9 67857.4 1393.55   5
   3   8  -9 65959.5 1461.73  13
  -3   8   9 70456.7 3156.18   2
  -3  -8   9 68123.9 3282.47  17
   3   8  -9 69466.3 1400.22   9
  -3  -8   8 7323.32 440.028  20
   3   8  -8 6670.78 409.349   5
   3   8  -8 7006.61 439.740  13
  -3   8   8 5651.65 984.777   2
  -3  -8   8 7038.43 1005.49  17
   3  -8  -8 7784.20 1163.90  19
   3   8  -8 7578.30 437.180   9
   3  -8  -8 7649.88 1241.37  16
  -3  -8   7 1255.60 183.516  20
   3   8  -7 1491.32 190.987   5
  -3   8   7 775.196 443.212   2
   3  -8  -7 1704.07 541.539  16
  -3  -8   7 1512.49 504.742  17
   3   8  -7 366.839 247.094  18
  -3  -8   7 1084.09 318.904  19
   3   8  -7 1370.00 188.437   9
   3   8  -7 1080.92 165.474  13
  -3   8   6 43892.3 3240.48   2
   3  -8  -6 40127.2 2402.84  16
  -3  -8   6 39751.6 902.618  20
  -3  -8   6 42489.3 1745.89  19
   3   8  -6 40366.8 902.276  13
  -3  -8   6 40218.5 2102.85  17
   3   8  -6 39548.0 2318.31  18
   3  -8  -5 96977.0 3319.21   3
  -3   8   5 102320. 4210.47   2
   3  -8  -5 97498.7 3412.20  16
  -3  -8   5 104568. 2619.61  19
   3   8  -5 99552.8 3143.03  18
   3  -8  -4 181.159 212.962  16
  -3   8   4 492.792 298.766   2
   3  -8  -4 1067.11 369.843   3
  -3  -8   4 912.797 264.636  19
   3   8  -4 557.316 222.096  18
  -3   8   3 286845. 5430.58   2
   3  -8  -3 310799. 5174.01   3
   3  -8  -3 309001. 5076.99  16
   3   8  -3 282944. 4155.43  18
  -3  -8   3 279382. 4101.87  19
  -3   8   3 290710. 3324.68   1
  -3   8   2 299.283 120.381   1
  -3   8   2 512.819 218.867   2
   3   8  -2 446.061 197.247  18
  -3  -8   2 311.904 174.200  19
   3  -8  -2 524.207 254.717   3
  -3   8   1 847.794 198.922   1
  -3   8   1 865.732 264.988   2
   3  -8  -1 722.886 276.108   3
   3   8  -1 453.667 182.283  18
  -3  -8   1 516.101 183.633  19
  -3  -8   0 34118.7 1401.39  19
  -3   8   0 35960.9 1332.88   1
   3  -8   0 36542.9 1608.03   3
   3   8   0 35207.9 1396.58  18
   3  -8   0 34901.4 1557.30  19
  -3  -8  -1 147356. 2918.68  19
  -3   8  -1 146085. 2793.13   1
   3   8   1 155894. 2983.42  18
   3  -8   1 148609. 3112.51  19
  -3   8  -2 1221.85 286.581   1
   3  -8   2 1361.79 314.941   3
   3   8   2 1252.55 287.986  18
   3  -8   2 1275.56 308.138  19
  -3  -8  -2 1120.52 274.313  19
   3  -8   3 67903.5 2104.98   3
   3  -8   3 65101.1 1964.21  17
   3  -8   3 66120.3 1972.32  19
  -3  -8  -3 65921.4 2005.60  19
  -3   8  -3 61544.4 1974.12   1
   3  -8   4 15390.8 1015.49  17
   3  -8   4 16916.3 985.675  19
  -3  -8  -4 15570.8 995.623  19
   3  -8   4 16785.8 1065.60   3
  -3   8  -4 15809.2 1049.32   1
  -3   8  -5 407.439 223.435   1
   3  -8   5 282.215 188.255  17
   3  -8   5 1082.36 276.535   3
  -3  -8  -5 863.639 240.920  19
   3  -8   6 34786.4 1603.27  17
  -3  -8  -6 35954.1 890.590   7
  -3   8  -6 35522.7 805.258  13
  -3   8  -6 36967.6 1769.46   1
  -3  -8  -6 34913.0 1487.90  16
  -3  -8  -6 36924.9 894.485   6
  -3   8  -6 36491.5 892.164   5
  -3  -8  -6 38110.2 1617.63  19
   3  -8   6 37158.6 827.533  20
   3  -8   6 35117.5 1491.18   3
   3  -8   7 51399.9 2021.72  17
  -3  -8  -7 49360.8 1903.34  16
  -3  -8  -7 50646.6 1107.43   7
  -3   8  -7 50042.3 967.656  13
  -3   8  -7 51788.7 2205.20   1
  -3  -8  -7 50687.5 1096.73   6
  -3   8  -7 48330.1 1075.60   5
  -3   8  -7 53185.5 2422.39   4
   3  -8   7 49615.8 1769.50   3
   3  -8   7 47634.2 935.797  20
   3  -8   8 14973.3 523.659  20
   3  -8   8 15886.1 1177.15  17
  -3  -8  -8 13539.6 1061.51  16
  -3  -8  -8 15379.4 641.962   7
  -3   8  -8 14421.4 537.029  13
  -3   8  -8 15745.3 556.153  12
  -3   8  -8 15548.8 589.805   9
  -3   8  -8 14070.4 1239.15   1
  -3   8  -8 16520.0 1306.47   4
  -3  -8  -8 15789.6 640.110   6
  -3   8  -8 16123.6 661.219   5
  -3  -8  -9 123025. 1871.89   7
  -3   8  -9 123186. 1519.31  12
  -3   8  -9 119449. 3851.90   1
  -3   8  -9 127346. 1673.92   9
  -3   8  -9 125677. 1946.50   5
  -3  -8  -9 124454. 1881.28   6
  -3  -8 -10 28081.1 933.330   6
  -3   8 -10 27497.9 974.486   5
  -3  -8 -10 27788.1 939.775   7
  -3   8 -10 27624.7 799.167   9
  -3   8 -10 27303.8 704.675  12
  -3   8 -11 3670.80 395.429   5
  -3  -8 -11 3672.51 367.316   6
  -3  -8 -11 3762.32 372.683   7
  -3   8 -11 3813.87 312.485   9
  -3   8 -11 3614.19 261.520  12
  -3   8 -12 13850.7 594.343   9
  -3  -8 -12 13853.0 717.292   7
  -3  -8 -12 13926.2 709.093   6
  -3   8 -12 13339.0 751.456   5
  -3   8 -13 49967.0 1158.90   9
  -3  -8 -13 50561.1 1384.15   7
  -3  -8 -13 49657.7 1373.09   6
  -3   8 -14 231.596 127.658   9
  -3  -8 -14 218.074 151.214   7
  -3  -8 -14 268.613 147.229   6
  -3   8 -15 23774.0 548.137   9
  -3  -8 -15 24660.4 717.158   7
  -3  -8 -15 24154.4 588.219   6
  -3  -8 -16 1747.70 135.344   7
   3   9 -15 547.114 64.7807  13
  -3   9  15 674.569 100.457   5
   3  -9 -15 587.824 90.7574   6
   3   9 -15 616.516 84.8066   9
   3  -9 -14 57028.8 982.397   6
   3   9 -14 55428.9 829.966   9
   3   9 -14 54455.6 743.009  13
   3  -9 -13 9947.83 512.528   6
   3   9 -13 10252.9 433.658   9
   3   9 -13 9038.40 366.241  13
   3   9 -12 5217.91 379.774   9
   3   9 -12 5861.72 353.166  13
  -3  -9  11 680.946 195.221  20
   3   9 -11 371.594 150.116  13
   3   9 -11 276.715 174.632   9
  -3  -9  10 63868.1 1511.37  20
   3   9 -10 68333.0 1496.21   5
   3   9 -10 64454.6 1569.40  13
   3   9 -10 67358.6 1495.23   9
  -3  -9   9 17910.9 759.678  20
   3   9  -9 17516.2 712.378   5
   3   9  -9 19063.2 799.248  13
  -3   9   9 19506.3 984.445  13
   3   9  -9 18818.0 746.602   9
  -3   9   8 33171.9 2625.42   2
  -3   9   8 40094.3 1298.07  13
   3   9  -8 38556.4 1048.56  13
  -3  -9   8 40042.0 1060.28  20
   3   9  -8 38057.1 974.445   5
   3  -9  -8 36282.0 2631.09  19
   3   9  -8 38651.7 990.380   9
   3  -9  -8 37128.8 2764.64  16
  -3   9   7 11531.8 1895.06   2
  -3   9   7 10920.4 633.529  13
   3   9  -7 10478.1 514.492  13
  -3  -9   7 11399.6 536.518  20
  -3  -9   7 9981.91 967.591  19
   3   9  -7 10114.5 474.636   5
   3  -9  -7 10927.4 1301.24  19
   3   9  -7 10417.8 487.267   9
   3  -9  -7 9042.19 1216.55  16
  -3   9   6 2836.81 806.946   2
   3   9  -6 2363.85 237.745  13
  -3   9   6 3061.72 315.124  13
  -3  -9   6 2662.51 253.968  20
   3   9  -6 2635.45 235.490   5
   3   9  -6 3077.37 724.789  18
  -3  -9   6 2583.21 488.828  19
   3  -9  -6 2517.39 583.125  19
   3   9  -6 2810.58 246.473   9
   3  -9  -6 3435.87 691.079  16
  -3   9   5 21096.8 774.166  13
   3   9  -5 21374.4 660.611  13
  -3  -9   5 21977.1 684.955  20
  -3  -9   5 21750.4 1287.19  19
   3   9  -5 20023.8 591.982   5
   3   9  -5 21335.2 1565.14  18
   3  -9  -5 21362.3 1598.49  19
   3  -9  -5 22856.8 1764.57   3
  -3   9   5 24975.3 2115.12   2
   3  -9  -5 20921.7 1539.76  16
  -3  -9   4 180436. 3607.19  19
  -3  -9   4 201643. 1989.48  20
  -3   9   4 202302. 2660.23   5
   3   9  -4 190398. 4056.71  18
   3  -9  -4 191177. 4504.83  19
  -3   9   4 200029. 5247.10   2
   3  -9  -4 199876. 4911.63   3
  -3   9   4 192257. 2231.24  13
   3   9  -4 188789. 1885.48  13
  -3  -9   3 17693.7 1116.75  19
  -3  -9   3 18748.8 598.495  20
  -3   9   3 18475.5 739.554   5
   3   9  -3 17865.5 1141.18  18
   3  -9  -3 18495.2 1350.17  19
   3  -9  -3 18959.9 1417.99   3
  -3   9   3 16356.5 1352.99   2
  -3   9   3 19373.4 689.963  13
   3   9  -2 53881.9 1880.83  18
   3  -9  -2 52607.0 2189.92  19
  -3  -9   2 52447.5 1891.52  19
  -3   9   2 53565.1 1603.87   1
  -3   9   2 51248.7 2233.66   2
   3  -9  -2 53359.6 2280.79   3
   3  -9  -1 41196.3 1875.83  19
   3   9  -1 43159.1 1659.32  18
  -3  -9   1 42527.0 1703.07  19
  -3   9   1 39125.9 1438.49   1
   3  -9  -1 44818.6 2000.78   3
   3   9   0 29904.9 1391.61  18
   3  -9   0 31302.7 1589.57  19
  -3  -9   0 31936.7 1472.40  19
  -3   9   0 30280.7 1313.67   1
   3  -9   0 33172.7 1675.57   3
   3   9   1 11579.3 881.620  18
   3  -9   1 11391.5 938.291  19
  -3  -9  -1 10971.1 869.085  19
  -3   9  -1 11419.4 842.934   1
   3  -9   1 11549.4 970.892   3
   3  -9   2 146083. 3008.49  17
   3  -9   2 143497. 3218.78  19
  -3  -9  -2 150513. 3231.10  19
   3   9   2 141558. 3151.19  18
  -3   9  -2 139270. 3057.04   1
   3  -9   2 141163. 3344.65   3
   3  -9   3 4283.55 598.454   3
  -3   9  -3 4140.34 291.604  13
   3  -9   3 3935.64 521.359  19
  -3  -9  -3 4061.42 542.344  19
   3  -9   3 3955.95 289.520  20
  -3   9  -3 4403.36 309.250   5
   3   9   3 3876.79 547.283  18
  -3   9  -3 4114.48 554.407   1
   3  -9   3 3690.92 499.484  17
   3  -9   4 54878.7 1967.82  17
  -3  -9  -4 54732.5 1070.44   7
  -3   9  -4 54288.9 1040.43  13
   3   9   4 53861.7 2076.66  18
  -3   9  -4 50985.7 1058.15   5
  -3  -9  -4 55242.9 1030.54   6
   3  -9   4 56227.8 2074.45   3
  -3  -9  -4 49830.3 1922.30  19
   3  -9   4 53211.6 1037.07  20
   3  -9   4 52520.7 1869.53  19
  -3   9  -4 53235.9 2048.60   1
  -3  -9  -5 24972.4 743.450   7
  -3   9  -5 25565.7 715.006  13
   3  -9   5 25471.5 1380.10  17
  -3   9  -5 25483.3 760.654   5
  -3  -9  -5 23421.5 704.780   6
   3  -9   5 26196.2 1395.82   3
  -3  -9  -5 22732.8 1322.63  19
   3  -9   5 23804.5 695.004  20
  -3   9  -5 23277.4 1418.59   1
  -3  -9  -6 40856.0 980.965   7
  -3   9  -6 40133.2 899.014  13
   3  -9   6 40962.8 1800.22  17
   3  -9   6 39902.7 1706.93   3
  -3  -9  -6 40194.5 960.842   6
  -3   9  -6 42808.4 1013.53   5
  -3   9  -6 42569.4 2002.17   1
   3  -9   6 42335.0 922.581  20
   3  -9   7 4137.22 295.558  20
  -3   9  -7 4322.65 340.094   5
  -3  -9  -7 3964.48 325.081   6
  -3   9  -7 4386.39 326.453   9
  -3  -9  -7 4358.13 337.987   7
  -3   9  -7 4340.80 301.395  13
   3  -9   7 3991.15 584.861  17
  -3   9  -7 4301.17 681.090   1
  -3   9  -7 4361.53 722.606   4
  -3  -9  -8 106897. 1711.91   7
  -3   9  -8 108483. 1434.66  12
  -3   9  -8 106587. 1491.06  13
  -3   9  -8 104858. 1701.06   5
  -3  -9  -8 101343. 1648.36   6
   3  -9   8 104228. 1422.27  20
  -3   9  -8 105226. 1535.22   9
  -3  -9  -9 35506.7 1028.25   7
  -3   9  -9 36770.0 814.397  12
  -3   9  -9 33951.6 870.238  13
  -3  -9  -9 35932.3 1016.23   6
  -3   9  -9 37067.3 1068.30   5
   3  -9   9 34712.2 810.752  20
  -3   9  -9 37612.6 927.175   9
  -3   9 -10 19626.8 572.335  12
  -3  -9 -10 20185.4 806.975   7
  -3   9 -10 20330.6 830.970   5
  -3  -9 -10 19776.8 781.065   6
  -3   9 -10 20042.8 682.676   9
  -3  -9 -11 9389.96 575.091   7
  -3   9 -11 8878.62 576.253   5
  -3  -9 -11 9806.72 576.615   6
  -3   9 -11 9767.54 483.892   9
  -3  -9 -12 25183.6 946.093   7
  -3   9 -12 24931.2 980.429   5
  -3  -9 -12 25895.7 942.939   6
  -3   9 -12 25775.8 785.697   9
  -3   9 -13 5861.76 393.829   9
  -3  -9 -13 6044.35 468.611   7
  -3  -9 -13 5928.52 463.858   6
  -3   9 -14 35690.2 887.820   9
  -3  -9 -14 33628.7 868.836   7
  -3  -9 -14 33753.6 962.252   6
  -3   9 -15 2260.04 149.636   9
  -3  -9 -15 2230.68 161.493   7
  -3  -9 -15 2251.06 155.103   6
   3  10 -15 28186.2 389.022   9
  -3  10  15 26309.5 423.934   5
   3  10 -14 8698.65 260.045  13
   3  10 -14 9005.33 287.132   9
  -3  10  14 8248.75 322.042   5
   3 -10 -14 8687.68 337.092   6
   3  10 -13 6977.02 310.383   9
   3 -10 -13 7719.54 404.337   6
  -3  10  13 6935.37 357.272   5
   3  10 -13 6897.72 289.474  13
   3  10 -12 25958.9 710.576   9
   3  10 -12 25855.6 672.182  13
   3 -10 -12 25636.7 892.874   6
   3  10 -11 20512.0 762.272   9
   3  10 -11 21820.1 758.926  13
  -3 -10  11 21596.6 781.278  20
   3  10 -10 369.979 169.745   9
   3  10 -10 250.547 137.778  13
  -3 -10  10 335.296 152.740  20
   3  10 -10 351.549 132.989   5
   3  10  -9 60875.1 1337.27   9
   3  10  -9 61586.1 1429.10  13
  -3 -10   9 60972.9 1401.28  20
   3  10  -9 61651.9 1311.06   5
   3  10  -8 2961.89 297.471   9
  -3  10   8 3315.24 381.976  13
   3  10  -8 3278.26 323.344  13
  -3 -10   8 3406.19 330.648  20
   3  10  -8 3074.85 291.597   5
   3  10  -7 2093.45 237.581   9
   3  10  -7 1300.11 180.122   5
  -3  10   7 1415.87 244.471  13
   3  10  -7 1437.50 212.543  13
  -3 -10   7 1709.65 232.083  20
  -3  10   6 12423.6 649.332  13
   3  10  -6 11132.2 519.720  13
   3 -10  -6 12298.0 1392.53  19
   3  10  -6 11517.2 487.976   5
  -3  10   6 11804.8 823.437   5
   3  10  -6 12623.3 518.345   9
  -3  10   6 12700.0 1686.50   2
  -3 -10   6 12512.6 564.231  20
  -3 -10   6 10538.5 988.477  19
   3 -10  -5 74991.4 3194.05  19
   3  10  -5 70580.0 1145.78   5
  -3  10   5 79195.5 1905.10   5
  -3  10   5 81289.5 3852.98   2
  -3 -10   5 80189.2 2610.34  19
  -3 -10   5 75043.0 1327.92  20
   3  10  -5 72471.2 1260.51  13
  -3  10   5 71031.3 1469.36  13
   3  10  -4 10863.8 1063.55  18
   3 -10  -4 10911.6 1165.06  19
  -3  10   4 11932.4 680.150   5
   3  10  -4 9988.53 416.076   5
   3 -10  -4 11539.7 1256.57   3
  -3  10   4 13638.6 1402.23   2
  -3 -10   4 10042.1 478.189  20
  -3 -10   4 10322.4 928.280  19
   3 -10  -4 10378.5 536.398  20
   3  10  -4 9837.48 455.389  13
  -3  10   4 9889.07 533.671  13
   3  10  -3 159521. 3679.76  18
   3 -10  -3 157956. 4203.32  19
  -3  10   3 152839. 2234.34   5
  -3 -10   3 153142. 3498.52  19
  -3 -10   3 162490. 1855.81  20
   3 -10  -3 152422. 1958.82  20
  -3  10   3 152475. 2015.74  13
   3  10  -3 153149. 1721.28  13
   3  10  -2 36763.6 1675.86  18
   3 -10  -2 34481.3 1897.56  19
  -3  10   2 34569.4 1002.51   5
   3 -10  -2 34516.6 1966.28   3
  -3 -10   2 34785.2 848.554  20
  -3 -10   2 35251.3 1662.30  19
   3 -10  -2 33514.6 904.020  20
  -3  10   2 34937.5 944.851  13
   3  10  -2 34609.8 806.111  13
  -3  10   1 2716.94 267.218  13
   3  10  -1 2745.02 227.215  13
   3  10  -1 2295.53 413.495  18
  -3 -10   1 2272.68 428.779  19
   3 -10  -1 2936.92 545.433  19
  -3  10   1 2622.10 275.290   5
  -3  10   1 2285.84 373.152   1
  -3 -10   1 2921.77 258.532  20
   3 -10  -1 2755.67 264.460  20
   3 -10  -1 2675.67 538.147   3
  -3  10   0 18148.2 661.328  13
   3  10   0 18005.1 559.694  13
   3  10   0 17126.1 1127.26  18
  -3  10   0 18566.9 690.714   5
  -3  10   0 16724.2 1041.67   1
  -3 -10   0 18167.1 604.522  20
  -3 -10   0 18375.1 1200.75  19
   3 -10   0 17911.8 1293.33  19
   3 -10   0 18565.5 654.774  20
   3 -10   0 18105.3 1318.25   3
  -3  10  -1 46808.8 1036.89  13
   3  10   1 43545.3 1815.98  18
  -3  10  -1 48098.1 1089.97   5
  -3  10  -1 45398.3 1782.48   1
  -3 -10  -1 44382.9 1878.23  19
   3 -10   1 44627.6 1008.13  20
   3 -10   1 44506.1 1976.78  19
   3 -10   1 46041.5 2092.93   3
  -3  10  -2 225.441 90.3263  13
   3  10   2 581.543 217.449  18
  -3 -10  -2 437.964 217.921  19
   3 -10   2-265.456 201.111  19
  -3  10  -2 616.965 130.686   5
   3 -10   2 23.0304 134.741   3
   3 -10   2 186.990 97.6492  20
  -3  10  -2 261.476 177.741   1
   3 -10   3 176877. 3975.69   3
  -3  10  -3 154551. 1860.69  13
   3  10   3 163198. 3703.61  18
  -3 -10  -3 165056. 1969.46   7
  -3 -10  -3 164288. 1740.32   6
  -3  10  -3 174780. 2037.98   5
  -3 -10  -3 162155. 3655.97  19
   3 -10   3 165023. 1917.41  20
   3 -10   3 160032. 3580.85  19
  -3  10  -3 159715. 3618.10   1
   3 -10   4 7651.75 818.530   3
  -3  10  -4 7193.94 405.150  13
   3  10   4 8216.63 870.194  18
  -3 -10  -4 7832.32 436.078   7
  -3  10  -4 7974.91 445.021   5
  -3 -10  -4 8216.03 413.713   6
   3 -10   4 7085.22 733.858  19
  -3 -10  -4 8280.62 840.976  19
   3 -10   4 7575.05 416.474  20
  -3  10  -4 7343.60 814.301   1
   3 -10   5 11473.1 985.480   3
  -3  10  -5 13643.9 546.374  13
   3  10   5 11751.6 1054.04  18
  -3 -10  -5 12867.6 532.133   6
  -3  10  -5 13196.0 571.729   5
  -3  10  -5 13329.5 1133.60   1
  -3 -10  -5 13882.3 1111.53  19
   3 -10   5 12666.6 530.367  20
  -3 -10  -6 65221.2 1291.65   7
  -3  10  -6 62638.5 1162.47  13
   3 -10   6 63723.7 1165.56  20
  -3  10  -6 61024.4 1245.31   5
  -3 -10  -6 64164.2 1224.28   6
  -3  10  -6 62204.2 2542.44   1
  -3  10  -6 66251.5 3033.58   4
  -3 -10  -7 65107.7 1329.68   7
  -3  10  -7 63809.5 1115.79  12
  -3  10  -7 63730.3 1169.40  13
  -3 -10  -7 62759.6 1258.59   6
  -3  10  -7 65533.2 1324.08   5
  -3  10  -7 64765.2 1216.26   9
   3 -10   7 62349.7 1141.18  20
  -3 -10  -8 2277.33 277.081   7
  -3  10  -8 2772.50 239.454  12
  -3  10  -8 2421.81 239.428  13
  -3  10  -8 2506.37 254.351   9
   3 -10   8 2680.82 244.297  20
  -3  10  -8 2638.95 288.951   5
  -3 -10  -8 2537.54 277.529   6
  -3 -10  -9 66489.3 1431.56   7
  -3  10  -9 66696.7 1219.87  13
  -3  10  -9 70119.9 1250.16   9
   3 -10   9 67274.7 1128.69  20
  -3  10  -9 70237.2 1453.85   5
  -3 -10  -9 67330.3 1366.36   6
  -3 -10 -10 26587.1 934.268   7
  -3  10 -10 26175.8 794.658  13
  -3  10 -10 27987.9 793.675   9
  -3 -10 -10 28346.2 909.922   6
  -3  10 -10 27386.9 937.158   5
   3 -10  10 28385.8 714.950  20
  -3  10 -11 2148.18 237.464   9
  -3 -10 -11 2005.50 274.501   7
  -3 -10 -11 2028.98 264.776   6
  -3  10 -11 2146.65 294.284   5
  -3  10 -12 1759.61 219.377   9
  -3 -10 -12 1489.58 233.931   7
  -3 -10 -12 1376.33 229.709   6
  -3  10 -13 42500.4 974.638   9
  -3 -10 -13 42194.8 1142.50   6
  -3 -10 -13 40982.6 936.120   7
  -3  10 -14 1886.72 179.670   9
  -3 -10 -14 1839.52 146.901   7
  -3 -10 -14 1884.53 192.580   6
   3 -11 -14 12963.7 322.746   6
  -3  11  14 12074.0 300.098   5
   3  11 -13 6744.55 243.349   9
   3 -11 -13 7113.96 327.443   6
  -3  11  13 6546.68 297.490   5
   3  11 -13 6699.70 244.163  13
   3  11 -12 16.3889 82.0061   9
   3  11 -12-12.2424 81.9901  13
   3 -11 -12 250.540 117.106   6
  -3  11  12 217.707 99.8090   5
   3  11 -11 907.125 156.491   9
   3  11 -11 889.076 158.682  13
  -3 -11  11 940.995 161.975  20
   3 -11 -11 773.344 211.968   6
  -3  11  11 843.611 176.707   5
   3  11 -10 54754.0 1231.01   9
   3  11 -10 58565.6 1386.98  13
  -3 -11  10 54501.8 1359.52  20
  -3  11  10 53873.5 1403.65   5
   3  11  -9 10604.9 570.576   9
  -3  11   9 12832.5 797.169  13
   3  11  -9 11157.1 603.397  13
  -3 -11   9 10407.3 590.395  20
  -3  11   9 10690.4 750.918   5
   3  11  -9 10401.1 529.150   5
   3  11  -8 35368.9 970.346   9
   3  11  -8 35862.0 1029.16  13
  -3 -11   8 34510.3 1026.89  20
   3  11  -8 36427.2 944.713   5
  -3  11   8 36689.5 1695.16   5
   3  11  -7 16987.5 644.771   9
   3  11  -7 16896.1 616.963   5
  -3  11   7 18636.1 1150.68   5
   3  11  -7 17571.5 688.943  13
  -3  11   7 17700.4 828.163  13
  -3 -11   7 16621.3 685.506  20
  -3  11   6 11293.2 811.290   5
   3  11  -6 10322.9 464.060   5
   3  11  -6 10463.9 515.285  13
  -3  11   6 10918.7 618.682  13
  -3 -11   6 10920.6 550.601  20
  -3  11   5 2944.98 397.534   5
   3  11  -5 2638.29 231.947   5
  -3  11   5 2909.69 317.442  13
   3  11  -5 2699.58 261.375  13
  -3 -11   5 2527.26 266.112  20
  -3  11   4 121007. 2201.09   5
   3  11  -4 113864. 1430.72   5
  -3 -11   4 116960. 1681.44  20
   3 -11  -4 116906. 1833.38  20
   3  11  -4 116533. 1599.30  13
   3  11  -3 5495.95 743.973  18
  -3  11   3 5534.92 451.013   5
   3 -11  -3 5450.80 874.537   3
  -3 -11   3 5633.16 722.896  19
  -3 -11   3 5823.62 378.490  20
   3 -11  -3 6152.71 417.078  20
   3 -11  -3 6044.24 866.054  19
  -3  11   3 5936.42 421.200  13
   3  11  -3 6505.94 373.779  13
   3  11  -2 37329.9 1829.75  18
  -3  11   2 37761.5 1097.03   5
   3 -11  -2 38160.6 2205.16   3
   3 -11  -2 38235.7 2092.08  19
  -3 -11   2 41396.2 1902.94  19
  -3 -11   2 38667.5 945.887  20
   3 -11  -2 37847.6 998.833  20
   3  11  -2 37205.2 866.025  13
  -3  11   2 37048.2 1010.15  13
   3  11  -1 68218.6 2390.66  18
  -3  11   1 69076.6 1427.63   5
   3 -11  -1 73982.1 2949.62   3
  -3 -11   1 65903.0 1211.58  20
  -3 -11   1 69216.2 2459.56  19
   3 -11  -1 64276.0 1284.76  20
   3 -11  -1 67989.0 2728.13  19
  -3  11   1 65933.4 1320.82  13
   3  11  -1 70640.9 1169.44  13
   3  11   0 9375.23 424.155  13
  -3  11   0 8353.84 467.311  13
   3  11   0 10154.1 927.034  18
  -3  11   0 9734.52 528.392   5
   3 -11   0 9741.59 1065.44   3
  -3 -11   0 10367.0 956.957  19
   3 -11   0 10133.5 1031.97  19
   3 -11   0 9148.79 484.337  20
  -3 -11   0 9629.49 473.215  20
  -3  11   0 8828.88 798.683   1
  -3  11  -1 23942.7 775.077  13
   3  11   1 24727.7 671.006  13
   3  11   1 24159.9 1436.87  18
  -3  11  -1 24623.4 815.473   5
   3 -11   1 27320.3 1690.76   3
  -3 -11  -1 24718.3 745.747  20
   3 -11   1 25158.5 786.408  20
   3 -11   1 22351.7 1486.11  19
  -3 -11  -1 25757.5 1513.82  19
  -3  11  -1 22037.4 1305.37   1
  -3  11  -2 151172. 1911.85  13
   3  11   2 154718. 3699.39  18
  -3  11  -2 140761. 1911.90   5
   3 -11   2 152060. 3955.63   3
  -3 -11  -2 138297. 3540.17  19
   3 -11   2 149598. 1902.05  20
   3 -11   2 142499. 3633.79  19
  -3  11  -2 146787. 3482.54   1
  -3  11  -3 130.032 106.935  13
   3  11   3 564.386 267.869  18
  -3 -11  -3-521.672 264.995  19
   3 -11   3-280.412 218.516  19
  -3 -11  -3 230.907 103.995   6
  -3  11  -3 87.7180 101.484   5
   3 -11   3 239.150 111.570  20
   3 -11   3-464.786 230.736   3
  -3  11  -3 248.579 201.874   1
   3 -11   4 3822.87 307.764  20
  -3  11  -4 3754.04 317.384   5
  -3 -11  -4 3432.13 269.598   6
  -3  11  -4 3520.18 295.375  13
  -3 -11  -5 49379.0 1031.67   6
  -3  11  -5 49040.4 1120.98   5
  -3  11  -5 48184.6 1045.33  13
   3 -11   5 47446.6 1033.22  20
  -3 -11  -5 47869.7 1153.17   7
  -3 -11  -6 25392.4 853.088   7
  -3  11  -6 24318.4 732.506  13
  -3 -11  -6 23877.5 743.585   6
  -3  11  -6 24622.0 805.847   5
   3 -11   6 24340.2 730.775  20
  -3  11  -6 24365.9 755.091   9
  -3 -11  -7 10199.7 552.529   7
  -3  11  -7 10389.9 442.144  12
  -3  11  -7 11515.3 509.307   9
   3 -11   7 11418.3 493.311  20
  -3 -11  -7 10479.8 504.902   6
  -3  11  -7 11248.5 555.671   5
  -3  11  -7 10669.5 483.164  13
  -3  11  -8 63063.8 1164.00  13
  -3 -11  -8 64472.6 1414.24   7
  -3 -11  -8 63067.1 1250.68   6
  -3  11  -8 66555.0 1360.82   5
   3 -11   8 61649.8 1107.23  20
  -3  11  -8 63361.8 1174.66   9
  -3  11  -9 1332.37 186.608  13
  -3 -11  -9 1360.81 234.662   7
  -3 -11  -9 1438.71 213.555   6
  -3  11  -9 1280.28 212.059   5
   3 -11   9 1415.96 181.260  20
  -3  11  -9 1245.02 185.559   9
  -3  11 -10 16673.7 619.822  13
  -3  11 -10 17051.3 713.384   5
  -3 -11 -10 17310.0 676.809   6
   3 -11  10 17276.8 547.790  20
  -3 -11 -10 16895.4 749.562   7
  -3  11 -10 18395.2 615.206   9
  -3 -11 -11 21009.7 752.455   6
  -3 -11 -11 21837.6 828.449   7
  -3  11 -11 20964.5 791.418   5
  -3  11 -11 22787.4 680.742   9
  -3 -11 -12 31015.2 914.663   6
  -3 -11 -12 29876.7 720.487   7
  -3  11 -12 31453.4 790.185   9
  -3 -11 -13 1193.24 191.000   6
  -3  11 -13 1572.67 193.859   9
   3 -12 -13 2007.33 133.073   6
  -3  12  12 13091.4 415.958   5
   3 -12 -12 13934.8 464.682   6
   3  12 -12 13260.4 350.783  13
   3  12 -12 13272.2 306.012   9
   3  12 -11 8543.21 308.638   9
  -3  12  11 8444.47 413.585   5
   3 -12 -11 8987.75 473.445   6
   3  12 -11 9204.06 370.237  13
   3  12 -10 2474.03 208.858   9
  -3 -12  10 2350.34 259.794  20
  -3  12  10 2726.48 297.340   5
   3 -12 -10 2091.71 299.606   6
   3  12 -10 2362.53 252.524  13
   3  12  -9 61908.5 1180.17   9
  -3 -12   9 60606.7 1369.94  20
   3 -12  -9 60013.6 1751.34   6
  -3  12   9 61691.4 1590.07   5
   3  12  -9 64479.0 1235.94   5
   3  12  -9 63305.4 1391.93  13
   3  12  -8 20665.8 740.415   9
   3  12  -8 20720.4 775.278  13
  -3 -12   8 19817.8 777.772  20
   3 -12  -8 19203.8 935.098   6
  -3  12   8 21832.9 1176.86   5
   3  12  -8 19580.2 669.317   5
  -3  12   7 6834.13 523.911  13
   3  12  -7 6767.17 434.409  13
  -3 -12   7 6151.95 433.207  20
   3 -12  -7 5696.05 490.420   6
  -3  12   7 6331.76 660.475   5
   3  12  -7 6331.55 371.385   5
  -3  12   6 13826.6 699.323  13
   3  12  -6 14518.8 608.554  13
  -3 -12   6 13860.5 623.189  20
  -3  12   6 15659.9 937.586   5
   3  12  -6 13279.6 517.554   5
  -3  12   5 44881.5 1202.04  13
   3  12  -5 46461.0 1048.91  13
  -3 -12   5 46949.3 1114.15  20
  -3  12   5 49085.2 1512.86   5
   3  12  -5 47565.9 946.274   5
  -3  12   4 766.404 181.762  13
   3  12  -4 818.874 160.119  13
   3 -12  -4 795.501 182.546  20
  -3 -12   4 932.776 179.189  20
  -3  12   4 852.955 221.455   5
   3  12  -4 708.380 136.809   5
  -3  12   3 41389.5 1095.96  13
   3  12  -3 42029.3 954.964  13
  -3 -12   3 42651.7 1034.30  20
   3 -12  -3 41988.3 1104.77  20
  -3  12   3 42685.5 1249.57   5
  -3  12   2 12407.6 595.881  13
   3  12  -2 12184.5 507.924  13
   3 -12  -2 12256.2 582.920  20
  -3 -12   2 12219.8 552.778  20
  -3  12   2 12648.9 654.733   5
   3  12  -1 2712.22 241.143  13
  -3  12   1 2646.65 281.154  13
  -3 -12   1 2655.56 258.762  20
   3 -12  -1 3416.83 312.606  20
  -3  12   1 3363.86 330.759   5
   3  12   0 19224.7 610.685  13
  -3  12   0 19138.3 712.065  13
  -3 -12   0 19067.2 683.754  20
   3 -12   0 20385.7 732.782  20
  -3  12   0 20752.6 776.538   5
   3  12   1 51426.0 973.070  13
  -3  12  -1 50332.4 1137.83  13
   3 -12   1 49913.2 1128.47  20
  -3  12  -1 52141.4 1199.99   5
  -3  12  -2 8672.54 472.349  13
   3 -12   2 9571.96 495.065  20
  -3  12  -2 9159.19 503.128   5
  -3  12  -3 54386.7 1142.33  13
   3 -12   3 55352.2 1159.35  20
  -3  12  -3 56510.1 1216.55   5
  -3 -12  -4 70624.5 1149.96   6
   3 -12   4 68549.1 1262.43  20
  -3  12  -4 69928.3 1344.19   5
  -3  12  -4 68856.8 1267.40  13
  -3  12  -5 6090.04 374.148  13
  -3 -12  -5 6394.55 364.890   6
  -3  12  -5 6863.63 427.574   5
   3 -12   5 6633.00 389.480  20
  -3  12  -5 6683.23 388.365   9
  -3  12  -6 30732.9 815.786  13
  -3 -12  -6 28864.8 778.547   6
  -3  12  -6 31034.2 885.954   5
   3 -12   6 30380.4 801.164  20
  -3  12  -6 30961.3 819.504   9
  -3  12  -7 37034.8 878.168  13
  -3 -12  -7 34793.2 864.403   6
   3 -12   7 36522.0 854.968  20
  -3  12  -7 35849.7 866.141   9
  -3  12  -7 37636.6 984.821   5
  -3  12  -8 763.814 143.603   9
   3 -12   8 957.912 148.578  20
  -3 -12  -8 707.844 139.325   6
  -3  12  -8 715.794 153.206   5
  -3  12  -8 735.717 134.456  13
  -3  12  -9 16563.1 586.604  13
  -3 -12  -9 17038.9 617.757   6
  -3  12  -9 18452.1 700.142   5
   3 -12   9 17738.4 553.201  20
  -3  12  -9 18287.9 590.005   9
  -3  12 -10 4637.95 316.010  13
  -3 -12 -10 5050.07 345.684   6
  -3  12 -10 5038.13 372.840   5
  -3  12 -10 5355.61 320.952   9
   3 -12  10 5501.92 303.947  20
  -3  12 -11 110.015 84.5697   9
  -3  12 -11 55.6373 99.5196   5
  -3 -12 -11 147.769 92.2550   6
  -3  12 -12 4569.98 288.533   9
  -3 -12 -12 4705.88 330.661   6
  -3  13  11 3780.78 216.705   5
   3 -13 -11 3958.47 240.258   6
   3  13 -11 3833.12 187.599  13
  -3 -13  10 28070.0 640.752  20
  -3  13  10 26945.5 718.096   5
   3 -13 -10 26716.0 769.303   6
   3  13 -10 28809.5 642.855  13
  -3 -13   9 8235.51 463.443  20
  -3  13   9 8407.11 500.140   5
   3 -13  -9 7228.00 509.061   6
   3  13  -9 8724.91 455.595  13
  -3 -13   8 23662.9 824.894  20
  -3  13   8 24579.5 1028.30   5
   3  13  -8 24171.2 690.452   5
   3 -13  -8 23935.7 954.957   6
   3  13  -8 24318.5 811.090  13
  -3 -13   7 29516.6 913.564  20
   3  13  -7 30182.1 756.850   5
  -3  13   7 32420.0 1355.82   5
   3 -13  -7 28327.4 974.701   6
  -3  13   7 33287.4 1098.38  13
   3  13  -7 29300.8 869.608  13
  -3 -13   6 3928.76 341.392  20
   3  13  -6 4250.90 285.125   5
  -3  13   6 3927.86 451.392   5
   3 -13  -6 4089.19 357.195   6
   3  13  -6 4554.07 342.929  13
  -3  13   6 4170.25 382.711  13
  -3 -13   5 4983.07 380.448  20
  -3  13   5 5513.19 514.301   5
   3 -13  -5 4852.77 355.150   6
  -3  13   5 4762.41 393.557  13
   3  13  -5 5568.88 369.479  13
  -3 -13   4 45630.5 1092.62  20
  -3  13   4 45313.2 1148.30  13
   3  13  -4 46770.5 1018.88  13
  -3 -13   3 16685.0 663.804  20
   3 -13  -3 17603.8 715.549  20
  -3  13   3 16786.3 772.649   5
  -3  13   3 16834.0 688.912  13
   3  13  -3 16841.1 600.975  13
  -3 -13   2 28460.4 854.149  20
   3 -13  -2 27683.7 877.097  20
  -3  13   2 30048.6 983.062   5
   3  13  -2 29037.8 772.285  13
  -3  13   2 27517.3 863.105  13
  -3 -13   1 11935.8 556.994  20
   3 -13  -1 12262.9 574.341  20
  -3  13   1 11794.3 598.698   5
   3  13  -1 12305.3 498.229  13
  -3  13   1 12555.4 579.474  13
  -3 -13   0 5450.29 383.271  20
   3 -13   0 5565.01 382.593  20
  -3  13   0 5432.57 403.011   5
   3  13   0 5043.98 317.395  13
  -3  13   0 5656.96 387.185  13
   3 -13   1 28785.1 844.683  20
  -3  13  -1 27771.0 868.260   5
  -3  13  -1 27843.0 828.765  13
   3 -13   2 79750.1 1377.48  20
  -3  13  -2 80109.2 1440.18   5
  -3  13  -2 76367.8 1349.72  13
   3 -13   3 2944.90 275.919  20
  -3  13  -3 2694.74 280.743   5
  -3  13  -3 2792.31 267.873  13
  -3  13  -4 10036.7 460.259   9
   3 -13   4 8782.17 445.393  20
  -3  13  -4 9227.80 483.827   5
  -3  13  -4 9622.52 462.245  13
  -3  13  -5 24045.9 710.454  13
  -3 -13  -5 24142.4 635.840   6
  -3  13  -5 23845.9 759.759   5
   3 -13   5 24616.1 717.807  20
  -3  13  -5 25701.8 713.813   9
  -3  13  -6 15316.7 556.275  13
  -3 -13  -6 15460.8 521.063   6
   3 -13   6 16116.3 563.558  20
  -3  13  -6 17034.0 568.474   9
  -3  13  -6 15554.9 610.891   5
  -3  13  -7 597.879 127.857   9
   3 -13   7 533.331 117.998  20
  -3  13  -7 783.365 156.807   5
  -3 -13  -7 327.639 94.6967   6
  -3  13  -7 616.520 127.487  13
  -3  13  -8 35042.7 807.291  13
  -3 -13  -8 34491.9 783.171   6
   3 -13   8 34790.8 764.759  20
  -3  13  -8 35627.5 777.911   9
  -3  13  -8 35846.7 907.142   5
  -3  13  -9 183.088 98.9081   9
   3 -13   9 264.820 93.1446  20
  -3 -13  -9 177.419 91.1005   6
  -3  13  -9 437.237 136.296   5
  -3  13  -9 169.057 98.4442  13
  -3 -13 -10 3706.48 264.727   6
  -3  13 -10 3586.17 289.404   5
  -3  13 -10 4130.32 261.243   9
   3 -13  10 3549.47 225.911  20
  -3  13 -11 11250.5 408.993   9
  -3 -13 -11 11758.9 451.859   6
  -3  14  10 2726.02 159.415   5
   3  14 -10 2427.93 137.130  13
  -3 -14   9 19983.8 503.395  20
  -3  14   9 19090.3 547.221   5
   3 -14  -9 19554.6 533.006   6
   3  14  -9 21211.8 508.279  13
  -3 -14   8 14295.2 544.289  20
  -3  14   8 13614.0 581.661   5
   3 -14  -8 13308.7 562.512   6
   3  14  -8 15420.9 553.591  13
  -3 -14   7 4729.65 360.295  20
   3 -14  -7 5362.34 372.095   6
  -3  14   7 4825.41 443.400   5
  -3  14   7 5642.87 430.733  13
   3  14  -7 5180.04 354.329  13
  -3 -14   6 23078.0 785.376  20
  -3  14   6 26893.2 1066.45   5
  -3  14   6 27188.9 914.427  13
   3  14  -6 24529.8 745.638  13
  -3 -14   5 9650.17 514.589  20
  -3  14   5 10819.5 653.555   5
   3  14  -5 9984.31 470.676  13
  -3  14   5 9993.76 538.841  13
  -3 -14   4 140.213 124.575  20
  -3  14   4-83.2992 171.280   5
  -3  14   4 200.976 119.759  13
   3  14  -4 183.273 107.911  13
   3 -14  -3 51011.4 1175.59  20
  -3 -14   3 51268.0 1157.15  20
   3  14  -3 54304.0 1040.99  13
  -3  14   3 54455.9 1179.58  13
   3 -14  -2 4242.41 345.871  20
  -3 -14   2 3873.60 327.035  20
  -3  14   2 4060.48 355.666   5
   3  14  -2 4262.47 290.459  13
  -3  14   2 4544.44 344.867  13
  -3 -14   1 1099.63 192.839  20
   3 -14  -1 987.663 174.971  20
  -3  14   1 1274.49 207.243   5
   3  14  -1 909.814 140.315  13
  -3  14   1 1330.22 191.583  13
   3 -14   0 27396.4 808.682  20
  -3 -14   0 26239.7 845.842  20
  -3  14   0 28821.4 864.418   5
   3  14   0 28026.5 697.281  13
  -3  14   0 26758.9 785.278  13
  -3  14  -1 68699.5 1136.78   9
   3 -14   1 70572.1 1270.28  20
  -3  14  -1 71643.3 1254.84  13
  -3  14  -2 977.108 150.848   9
   3 -14   2 1101.42 175.293  20
  -3  14  -2 1227.64 190.300   5
  -3  14  -2 1282.70 184.018  13
  -3  14  -3 20689.4 608.590   9
   3 -14   3 20277.5 651.267  20
  -3  14  -3 21009.2 693.897   5
  -3  14  -3 20829.3 652.653  13
  -3  14  -4 32468.2 744.837   9
   3 -14   4 32243.7 794.068  20
  -3  14  -4 33286.6 853.573   5
  -3  14  -4 33191.1 799.863  13
  -3  14  -5 2860.07 222.231   9
   3 -14   5 3037.26 247.421  20
  -3  14  -5 3018.24 264.279   5
  -3  14  -5 3117.18 249.851  13
  -3  14  -6 15666.3 523.460  13
  -3 -14  -6 15070.7 438.545   6
  -3  14  -6 15654.0 568.039   5
   3 -14   6 16260.9 526.350  20
  -3  14  -6 16283.3 501.018   9
  -3  14  -7 27554.0 679.049  13
  -3 -14  -7 28196.5 605.255   6
  -3  14  -7 28373.5 753.876   5
   3 -14   7 27869.5 660.010  20
  -3  14  -7 28470.2 644.624   9
  -3  14  -8 2591.00 212.091  13
  -3 -14  -8 2851.13 200.274   6
  -3  14  -8 2956.47 249.517   5
   3 -14   8 2774.14 208.003  20
  -3  14  -8 2939.98 210.855   9
  -3 -14  -9 26363.6 583.076   6
  -3  14  -9 25994.7 683.575   5
  -3  14  -9 26050.6 582.534   9
   3  15  -8 5224.61 205.764  13
  -3  15   7 15315.1 505.397   5
   3  15  -7 15806.9 452.094  13
  -3 -15   7 16380.7 466.928  20
  -3  15   6 635.599 158.198   5
   3  15  -6 514.657 120.317  13
  -3  15   6 354.033 93.9249  13
  -3 -15   6 722.248 138.220  20
  -3  15   5 13276.0 641.089   5
   3  15  -5 11680.4 476.934  13
  -3  15   5 12231.0 548.445  13
  -3 -15   5 11510.0 526.809  20
  -3  15   4 48876.0 1183.91   5
   3  15  -4 47104.1 933.820  13
  -3  15   4 48925.6 1072.67  13
  -3  15   3 9289.58 508.466   5
   3  15  -3 8916.35 404.137  13
  -3  15   3 9174.70 457.160  13
  -3 -15   3 8581.93 460.360  20
  -3  15   2 29004.2 854.289   5
  -3  15   2 27922.4 771.365  13
   3  15  -2 27482.4 685.056  13
   3 -15  -2 25355.1 762.203  20
  -3 -15   2 24155.2 765.515  20
  -3  15   1 15165.2 598.873   5
   3  15  -1 13956.1 476.255  13
  -3  15   1 14163.1 541.540  13
   3 -15  -1 13870.1 561.727  20
  -3  15   0 23267.4 716.090   5
  -3  15   0 21741.0 653.118  13
   3 -15   0 21113.9 669.306  20
  -3  15  -1 31940.7 815.918   5
  -3  15  -1 30849.8 760.289  13
   3 -15   1 31035.0 786.877  20
  -3  15  -2 23035.3 679.836   5
   3 -15   2 21948.0 645.489  20
  -3  15  -2 22215.4 632.522  13
  -3  15  -2 21943.5 544.523   9
  -3  15  -3 2683.93 235.941   5
   3 -15   3 2934.97 239.701  20
  -3  15  -3 2745.69 227.352  13
  -3  15  -3 2806.53 200.851   9
  -3  15  -4 6789.76 358.308   5
   3 -15   4 6302.11 329.652  20
  -3  15  -4 6508.23 331.551  13
  -3  15  -4 5999.84 280.278   9
  -3  15  -5 27517.4 695.224   5
   3 -15   5 26656.9 643.114  20
  -3  15  -5 27490.9 649.295  13
  -3  15  -5 26935.8 572.695   9
  -3  15  -6 3203.29 238.248   5
   3 -15   6 3481.45 228.481  20
  -3  15  -6 3334.16 226.689  13
  -3  15  -6 3365.04 203.442   9
  -3  15  -7 6521.09 324.449   5
   3 -15   7 6155.76 286.565  20
  -3  15  -7 6358.75 295.074  13
  -3  15  -7 6329.46 262.856   9
  -3  15  -8 33500.7 666.400   5
  -3  16   4 845.736 144.923   5
  -3 -16   4 1013.71 104.830  20
  -3  16   3 29995.8 763.998   5
  -3  16   3 28542.9 703.681  13
  -3  16   2 14878.6 533.701   5
  -3  16   2 14557.9 506.096  13
  -3  16   1 335.889 107.312   5
  -3  16   1 712.939 126.079  13
  -3  16   0 18829.4 570.504   5
  -3  16   0 17779.2 534.593  13
   3 -16   1 21844.3 609.395  20
  -3  16  -1 22302.8 583.596  13
   3 -16   2 138.005 76.2492  20
  -3  16  -2 19.9069 75.3450   5
  -3  16  -2 184.769 83.7425  13
   3 -16   3 11537.5 417.628  20
  -3  16  -3 12500.3 430.671   5
  -3  16  -3 12175.1 410.617  13
   3 -16   4 9040.11 357.657  20
  -3  16  -4 9469.35 363.812   5
  -3  16  -4 8953.03 341.496  13
   3 -16   5 99.0860 61.4367  20
   4   0 -18 36655.3 621.250  10
   4   0 -18 36676.8 601.207   7
   4   0 -17-35.0659 72.9138   9
   4   0 -17-37.6984 77.9787  10
   4   0 -17 6.83452 76.1138   7
   4   0 -16 320.683 87.9718   9
   4   0 -16 494.079 137.775  10
   4   0 -16 435.549 119.327   7
   4   0 -15-58.7329 149.071  10
   4   0 -15-24.2549 82.8022   9
   4   0 -14 26122.5 697.494  13
   4   0 -14 28789.6 729.553   9
   4   0 -14 27280.3 951.396  10
   4   0 -13-31.2973 96.5096   9
   4   0 -13-67.4292 115.675  10
   4   0 -13 8.89957 82.8194  13
  -4   0  12 218763. 3967.15   2
  -4   0  12 235958. 4406.59  17
   4   0 -12 215863. 2057.37  13
   4   0 -12 231546. 2954.68  10
   4   0 -12 225213. 2065.71   9
  -4   0  11 73.8893 144.903   2
  -4   0  11-319.442 210.648  17
   4   0 -11-225.616 210.017  16
   4   0 -11 17.0818 69.4931  13
   4   0 -11 18.8339 78.7314   9
  -4   0  10 530.337 239.425  17
   4   0 -10 584.172 248.943  16
  -4   0  10 508.298 193.696   2
  -4   0   9 29.0709 178.998  17
   4   0  -9 262.512 207.855  16
  -4   0   9 294.607 170.829   2
   4   0  -8 228062. 4057.69  18
  -4   0   8 218441. 3765.77  17
   4   0  -8 210290. 4247.18  16
  -4   0   8 232794. 3433.19   2
   4   0  -7-25.5662 145.327  18
   4   0  -7 173.226 95.8129   3
  -4   0   7-16.8462 135.378  17
  -4   0   7 100.910 91.5266   2
   4   0  -6 455975. 4897.41  18
  -4   0   6 465172. 4876.00  17
   4   0  -6 439553. 3503.18   3
  -4   0   6 442717. 4128.09   2
   4   0  -5 133.230 128.328  18
  -4   0   5 141.287 140.512  17
  -4   0   5-24.6643 97.8659   2
   4   0  -4 10630.6 661.771  18
  -4   0   4 11938.5 714.615  17
  -4   0   4 12775.7 612.651   2
   4   0  -3 121.711 122.106  18
  -4   0   3 28.9253 36.3848   4
  -4   0   3 19.2462 105.980  17
  -4   0   3 53.2793 87.0048   1
  -4   0   3 64.7229 91.2836   2
  -4   0   2 260174. 3311.40   1
  -4   0   2 253209. 3259.35   2
  -4   0   2 279674. 2032.55   4
   4   0  -2 278731. 3321.91  18
  -4   0   2 295865. 4984.62  17
  -4   0   1 89.2761 65.6626   2
  -4   0   1-120.870 181.240   1
   4   0  -1 325.750 175.061  18
  -4   0   1-68.2383 143.488  19
  -4   0   1 50.1535 65.4890   4
  -4   0   0 196754. 2920.26   1
  -4   0   0 187834. 2864.09  19
   4   0   0 189230. 2533.40  18
   4   0   1 159.374 80.8747  18
  -4   0  -1 108.486 176.995   4
  -4   0  -1 79.5167 99.6511   1
   4   0   2 60109.0 941.551  18
  -4   0  -2 57171.3 2045.14   4
  -4   0  -2 59746.9 1444.28   1
   4   0   3 41.0641 29.3747  18
   4   0   3 112.607 96.7939   3
  -4   0  -3 12.1712 179.262   4
  -4   0  -3-1.91406 89.0761  16
  -4   0  -3 82.0904 91.2801   1
   4   0   4 608076. 2844.20  18
  -4   0  -4 563442. 6385.15   4
   4   0   4 589230. 4146.45   3
  -4   0  -4 609144. 4475.86  16
  -4   0  -4 578897. 4773.87   1
   4   0   5 142.941 61.2276  18
   4   0   5 35.4965 70.8664   3
  -4   0  -5 105.449 93.7417  16
  -4   0  -5 100.640 91.0024   1
  -4   0  -6 317543. 4865.49   4
   4   0   6 310316. 2573.52   3
  -4   0  -6 323112. 3793.95  16
   4   0   6 311261. 3432.42  17
  -4   0  -6 318254. 4228.31   1
  -4   0  -7 121.037 181.160   4
   4   0   7 37.0667 95.3521  17
  -4   0  -7 58.6900 104.899  16
  -4   0  -7 276.083 168.854   1
   4   0   8 5042.04 489.843  17
  -4   0  -8 5337.47 655.826   4
  -4   0  -8 5404.78 588.611  16
  -4   0  -9 128.091 146.245   4
   4   0   9-52.3413 142.607  17
  -4   0  -9-54.6993 171.093  16
  -4   0 -10 180725. 1801.95  14
   4   0  10 187304. 3392.48  17
  -4   0 -10 188448. 2072.00  12
  -4   0 -10 182142. 1862.89  11
  -4   0 -10 189557. 2060.59  10
   4   0  10 189849. 5098.88   2
  -4   0 -10 187443. 4105.57   4
  -4   0 -10 189245. 1905.30  15
  -4   0 -10 188031. 4036.15  16
  -4   0 -11-18.7092 98.7296  15
  -4   0 -11 63.8212 95.0400   7
  -4   0 -11 95.2284 115.876  12
  -4   0 -11-0.85750 89.6239  11
  -4   0 -11 72.2675 82.5892  10
   4   0  11-323.454 254.707   2
  -4   0 -11-245.434 182.760   4
  -4   0 -11-114.263 185.760  16
  -4   0 -12 73438.0 1401.92   7
  -4   0 -12 70029.8 1420.40  12
  -4   0 -12 73180.3 1278.81  11
   4   0  12 74992.2 3800.23   2
  -4   0 -12 70821.7 2669.45   4
  -4   0 -12 76758.9 1305.12  15
  -4   0 -12 70660.4 2977.82  16
  -4   0 -12 72857.9 1436.98  10
  -4   0 -13-13.5737 167.089  10
  -4   0 -13 7.97424 107.845  15
  -4   0 -13 42.0180 106.128   7
  -4   0 -14 338.599 142.285  10
  -4   0 -14 602.624 138.951   7
  -4   0 -14 873.408 209.426  15
  -4   0 -14 318.163 197.932  12
  -4   0 -15-80.0191 178.700  12
  -4   0 -15-88.6370 161.743   7
  -4   0 -15-127.551 185.207  10
  -4   0 -16 58545.0 1287.41  12
  -4   0 -16 58563.2 1449.74  10
  -4   0 -17 93.7786 148.618  10
  -4   0 -17 72.0366 115.051   7
  -4   0 -18 24371.8 600.491  10
   4   1 -18 1366.72 121.715  10
   4  -1 -18 1334.73 128.045  10
   4   1 -18 1286.70 101.576   9
   4   1 -18 1465.43 130.864   7
   4  -1 -18 1397.81 120.428   7
   4   1 -17 26356.0 641.729  10
   4   1 -17 27440.0 554.944   9
   4  -1 -17 26851.5 666.261  10
   4  -1 -17 26596.0 542.043   9
   4  -1 -17 27458.1 626.483   7
   4   1 -17 28252.5 654.652   7
   4  -1 -16 2613.50 204.078   9
   4   1 -16 2419.18 242.481  10
   4  -1 -16 2608.79 254.318  10
   4   1 -16 2608.34 202.069   9
   4   1 -16 2607.66 239.842   7
   4  -1 -16 2733.42 237.620   7
   4  -1 -15 1148.66 154.656   9
   4   1 -15 712.877 155.463  10
   4  -1 -15 677.878 159.437  10
   4   1 -15 1340.73 160.048   9
   4   1 -15 804.354 121.420  13
   4  -1 -15 753.908 149.821   7
   4   1 -14 157.637 115.273  10
   4  -1 -14 9.41516 145.991  10
   4  -1 -14 123.009 90.0143  13
   4   1 -14 277.657 85.7843  13
   4   1 -14 222.110 98.3510   9
   4  -1 -14 265.106 108.235   9
   4  -1 -13 67298.3 1186.68  13
   4   1 -13 69481.8 1136.56  13
   4  -1 -13 69209.8 1152.95   9
   4  -1 -13 71346.8 1615.65  10
   4   1 -13 72317.2 1615.82  10
   4   1 -13 69612.6 1155.97   9
  -4   1  12 23781.3 1321.88   2
  -4  -1  12 22230.3 1285.87   2
  -4   1  12 20120.5 1249.17  17
  -4  -1  12 21512.2 1395.65  17
   4  -1 -12 21918.1 679.420  13
   4   1 -12 22177.5 638.602  13
   4  -1 -12 20116.5 1534.72  16
   4  -1 -12 21711.3 645.147   9
   4   1 -12 22155.8 658.426   9
   4  -1 -12 21577.4 911.847  10
   4   1 -12 24686.4 966.325  10
  -4   1  11 20951.5 1191.68   2
  -4  -1  11 21645.9 1244.57   2
  -4   1  11 21185.4 1249.15  17
  -4  -1  11 20619.4 1365.32  17
   4  -1 -11 19916.0 638.295  13
   4   1 -11 19684.3 596.655  13
   4  -1 -11 19438.7 1501.05  16
   4  -1 -11 19820.6 599.409   9
   4   1 -11 19718.7 616.125   9
   4   1 -11 20091.0 877.113  10
  -4   1  10 172.898 123.022   2
  -4  -1  10 464.454 216.836   2
   4  -1 -10 335.787 249.151  16
  -4  -1  10 383.527 246.451  17
  -4   1  10 260.023 191.089  17
   4   1 -10 186.992 212.181  16
  -4   1   9 91017.1 2259.08   2
  -4  -1   9 92495.3 2400.23   2
  -4   1   9 81072.4 2280.64  17
  -4  -1   9 97560.3 2845.68  17
   4   1  -9 89372.3 2557.78  18
   4  -1  -9 84628.9 2919.45  16
   4   1  -9 85385.7 2892.55  16
  -4   1   8 353.427 175.415   2
  -4  -1   8 494.857 173.147   2
   4   1  -8 434.592 192.333  18
  -4   1   8 174.801 122.367  17
   4   1  -8 363.713 254.792  16
   4  -1  -8 594.661 265.763  16
  -4  -1   8 232.866 166.282  17
  -4  -1   7 294151. 3803.22   2
   4   1  -7 299128. 4013.06  18
  -4   1   7 289398. 3865.85  17
   4  -1  -7 295265. 4803.96  18
  -4  -1   7 300710. 4575.32  17
   4  -1  -6 6800.34 500.488   3
   4   1  -6 6618.66 566.400  18
   4  -1  -6 7455.71 717.412  18
  -4   1   6 7134.54 588.743  17
  -4  -1   6 7242.00 666.396  17
  -4   1   6 6835.32 525.415   2
  -4  -1   6 6981.91 547.161   2
  -4  -1   5 176553. 2429.58   2
  -4   1   5 171593. 2496.89   2
   4  -1  -5 167095. 2479.43   3
   4   1  -5 166022. 2720.04  18
  -4   1   5 175560. 2816.84  17
  -4  -1   5 174744. 2967.58  17
   4  -1  -5 176297. 3226.39  18
  -4  -1   5 159362. 2636.57  19
  -4   1   4 87908.5 1794.97   2
  -4  -1   4 90517.8 1548.65   2
  -4   1   4 89390.8 1705.16   1
   4  -1  -4 90395.9 1867.87   3
   4  -1  -4 89505.4 2143.06  18
   4   1  -4 80806.6 1915.21  18
  -4   1   4 94909.2 2130.96  17
  -4  -1   4 88619.1 1971.82  17
  -4  -1   4 97741.4 2120.59  19
  -4   1   3 360467. 4130.42   1
  -4  -1   3 389400. 2902.11   2
  -4   1   3 395876. 4196.03   2
   4  -1  -3 371503. 3939.55   3
   4  -1  -3 386157. 4153.58  18
   4   1  -3 393057. 4658.97  18
  -4   1   3 361044. 4996.93  17
  -4  -1   3 369117. 3922.57  17
  -4  -1   3 417467. 4651.80  19
  -4  -1   2 40804.0 1229.36   1
  -4   1   2 38822.0 1378.57   2
  -4   1   2 39403.5 1300.81   1
  -4  -1   2 38128.1 1083.05   2
  -4  -1   2 39750.9 663.400   4
   4  -1  -2 39086.8 1385.86   3
   4  -1  -2 36486.3 1196.12  18
   4   1  -2 36798.8 1364.66  18
  -4  -1   2 38501.6 1418.84  17
  -4  -1   2 41069.6 1581.01  19
  -4  -1   1 603065. 4882.67   1
  -4   1   1 607967. 4181.18   2
  -4   1   1 615116. 4537.61   1
   4  -1  -1 606575. 6513.72   3
  -4  -1   1 612603. 2782.14   2
  -4  -1   1 599967. 3550.04   4
   4   1  -1 602313. 4420.48  18
  -4  -1   1 606909. 6161.65  19
   4  -1   0 433.520 199.522   3
  -4  -1   0 304.960 140.021   4
   4  -1   0 275.936 116.734  18
   4   1   0 413.409 107.225  18
  -4  -1   0 543.932 212.461  19
  -4   1   0 375.768 100.648   2
  -4  -1   0 340.660 192.087   1
  -4   1   0 369.545 137.432   1
  -4  -1  -1 163237. 3284.27   1
  -4   1  -1 174020. 2184.73   1
  -4   1  -1 165508. 3081.94   4
   4  -1   1 167538. 2739.51   3
  -4  -1  -1 157113. 3064.82  19
   4  -1   1 172228. 2166.02  18
   4   1   1 173934. 1798.69  18
   4  -1   2 29376.3 855.830  18
   4   1   2 28356.3 709.753  18
  -4  -1  -2 29199.0 1422.52   1
  -4   1  -2 29713.6 916.123   1
  -4   1  -2 29476.9 1577.30   4
  -4  -1  -2 27823.9 1416.58   4
   4  -1   2 28527.6 1014.51   3
  -4  -1  -2 28529.2 849.425  16
  -4  -1  -2 32116.2 1511.26  19
   4   1   3 42106.4 870.019  18
  -4   1  -3 41604.9 1108.18   1
  -4   1  -3 41161.8 1830.58   4
   4  -1   3 41492.5 1117.70   3
  -4  -1  -3 39290.7 1701.28   4
  -4  -1  -3 39731.7 1543.25  19
  -4  -1  -3 40995.5 1085.59  16
  -4   1  -4 33360.7 1038.37   1
  -4  -1  -4 32111.4 1581.87   1
  -4   1  -4 32502.5 1579.39   4
   4  -1   4 32307.1 926.935   3
  -4  -1  -4 31684.1 1537.69   4
  -4  -1  -4 34812.4 1252.72  19
  -4   1  -4 33543.7 1050.13  16
  -4  -1  -4 31865.1 1032.42  16
   4   1   5 230507. 2562.79   3
  -4  -1  -5 229227. 4161.63   4
   4  -1   5 228455. 2382.66   3
  -4  -1  -5 233302. 3001.44  16
  -4   1  -5 231966. 2961.70  16
  -4   1  -5 230615. 2886.93   1
  -4  -1  -5 224234. 4574.54   1
  -4   1  -6 15745.2 1089.19   4
   4  -1   6 14146.6 570.956   3
   4   1   6 14989.6 568.358   3
  -4  -1  -6 15172.5 1082.39   4
  -4   1  -6 14651.3 806.393  16
  -4  -1  -6 14907.0 835.423  16
   4   1   6 14126.2 678.573  17
   4  -1   6 14650.0 777.785  17
  -4   1  -6 14530.2 793.212   1
  -4  -1  -6 14518.3 1428.79   1
  -4  -1  -7 33391.3 1631.01   4
  -4   1  -7 33011.4 1593.68   4
  -4  -1  -7 30432.9 1286.76  16
  -4   1  -7 33122.4 1306.50  16
   4   1   7 33035.2 1106.61  17
   4  -1   7 32129.9 1210.53  17
  -4   1  -7 34877.2 1362.04   1
  -4   1  -8 18622.2 1214.46   4
  -4  -1  -8 18878.4 1253.29   4
   4   1   8 17876.8 877.466  17
   4  -1   8 18929.6 986.296  17
  -4  -1  -8 18774.3 1096.89  16
  -4   1  -8 17845.6 1051.63  16
   4   1   8 19509.3 1511.74   2
  -4   1  -9 159814. 3630.10   4
  -4  -1  -9 158263. 3748.92   4
   4   1   9 155279. 4737.48   2
   4  -1   9 155704. 2999.28  17
   4   1   9 154946. 2778.75  17
  -4  -1  -9 148305. 3344.81  16
  -4   1  -9 156978. 3357.51  16
  -4   1 -10 10769.2 446.748  15
  -4  -1 -10 9556.38 927.354  16
  -4   1 -10 9669.27 920.809  16
  -4  -1 -10 10315.8 455.033  15
  -4   1 -10 9972.59 434.946  14
  -4  -1 -10 9523.23 409.099  14
  -4  -1 -10 9921.47 473.344   7
  -4   1 -10 9547.77 466.594  12
  -4   1 -10 9970.81 436.223  11
  -4  -1 -10 10547.4 447.060  11
  -4  -1 -10 9598.15 497.038  12
  -4   1 -10 10206.8 480.433  10
  -4  -1 -10 9938.69 477.760  10
   4   1  10 9581.60 1242.41   2
  -4   1 -10 10899.6 979.132   4
  -4  -1 -10 9214.54 945.101   4
   4  -1  10 10559.3 834.751  17
  -4   1 -11 118335. 1536.85  15
  -4   1 -11 108991. 3356.96  16
  -4  -1 -11 111853. 3429.13  16
  -4  -1 -11 111336. 1576.96  15
  -4  -1 -11 116262. 1471.94  14
  -4  -1 -11 115972. 1706.80   7
  -4   1 -11 114665. 1626.79   7
  -4  -1 -11 118949. 1839.04  12
  -4  -1 -11 113602. 1539.05  11
  -4   1 -11 112736. 1531.20  11
  -4   1 -11 117729. 1690.19  12
  -4   1 -11 112523. 1680.68  10
  -4  -1 -11 110566. 1687.41  10
   4   1  11 118115. 4469.41   2
   4  -1  11 117933. 4090.06   2
   4  -1  11 113028. 2916.30  17
  -4   1 -11 117568. 3295.50   4
  -4  -1 -11 110297. 3312.88   4
  -4  -1 -12 6678.70 440.702   7
  -4   1 -12 6630.21 422.341   7
  -4  -1 -12 5953.73 447.494  12
  -4   1 -12 6924.58 435.657  12
  -4  -1 -12 6243.89 376.963  11
  -4   1 -12 6836.94 447.324  10
  -4  -1 -12 6718.74 443.524  10
   4   1  12 6743.24 964.322   2
   4  -1  12 6062.10 989.395   2
  -4  -1 -12 5333.44 744.934   4
  -4   1 -12 7387.60 832.565   4
  -4   1 -12 7481.00 399.362  15
  -4  -1 -12 6495.21 403.971  15
  -4  -1 -12 7490.43 969.563  16
  -4   1 -12 7322.97 946.091  16
  -4   1 -13 5440.89 417.088  10
  -4  -1 -13 5467.55 423.106  10
  -4  -1 -13 5905.13 390.266  15
  -4   1 -13 5473.71 347.886  15
  -4  -1 -13 5538.77 416.061   7
  -4   1 -13 5991.66 415.215   7
  -4  -1 -13 5379.05 432.632  12
  -4   1 -13 5404.12 397.968  12
  -4  -1 -14 30.3422 183.769  12
  -4   1 -14-127.488 203.648  12
  -4   1 -14 6.73639 97.6384  15
  -4  -1 -14-130.346 171.093  10
  -4   1 -14 104.324 126.764  10
  -4   1 -14-34.4623 118.974   7
  -4  -1 -14 37.4340 169.590   7
  -4  -1 -15 15394.8 738.149  10
  -4   1 -15 14426.1 720.594  10
  -4   1 -15 14843.0 669.660   7
  -4  -1 -15 15091.2 720.594   7
  -4  -1 -15 15166.6 723.081  12
  -4   1 -15 14626.4 661.123  12
  -4   1 -15 17210.6 595.214  15
  -4  -1 -16 393.100 147.557  10
  -4   1 -16 490.084 155.738  10
  -4   1 -16 394.275 147.368   7
  -4  -1 -16 312.926 128.301   7
  -4   1 -16 532.893 185.046  12
  -4   1 -17 62049.3 1479.75  10
  -4  -1 -17 59627.3 1436.39  10
  -4  -1 -17 56926.6 1291.60   7
  -4   1 -17 53741.2 1147.71   7
  -4   1 -17 57952.1 1045.20  12
  -4  -1 -18 2163.02 187.401  10
  -4   1 -18 2110.89 169.681  10
   4  -2 -18 39346.0 553.745   7
   4   2 -18 39333.8 614.573   7
   4   2 -18 38188.1 518.802   9
   4   2 -18 35935.9 534.308  10
   4  -2 -18 37115.3 616.411  10
   4  -2 -17 103.836 67.7091   7
   4   2 -17 232.867 92.3063   7
   4   2 -17 107.558 65.0262  10
   4  -2 -17 136.102 73.1478  10
   4   2 -17 85.7894 73.4197   9
   4  -2 -16 1131.34 153.150   7
   4   2 -16 1320.04 174.272  10
   4  -2 -16 1465.85 153.081   9
   4   2 -16 1316.34 145.168   9
   4  -2 -16 1428.10 191.684  10
   4   2 -15 370.157 107.541  10
   4  -2 -15 469.495 130.518  10
   4  -2 -15 601.621 118.995   9
   4   2 -15 464.787 112.083   9
   4  -2 -15 761.930 154.117   7
   4   2 -15 577.556 108.734  13
   4  -2 -14 66455.6 1484.29  10
   4  -2 -14 65084.4 1111.01   9
   4   2 -14 63310.0 1413.24  10
   4   2 -14 65850.3 1095.16   9
   4  -2 -14 62351.7 1127.96  13
   4   2 -14 64343.3 1057.15  13
   4  -2 -14 65002.1 1293.07   7
   4  -2 -13 1005.39 163.032  13
   4   2 -13 1120.54 152.624  13
   4   2 -13 1069.52 160.560   9
   4  -2 -13 1078.49 162.945   9
   4   2 -13 1067.49 215.065  10
   4  -2 -13 1009.52 212.951  10
  -4  -2  12 147236. 3370.18   2
  -4   2  12 158246. 3420.60   2
   4   2 -12 147408. 1640.79  13
   4  -2 -12 148185. 1856.57  13
  -4   2  12 145266. 3292.80  17
  -4  -2  12 153546. 3879.36  17
   4  -2 -12 142463. 4149.75  16
   4   2 -12 151416. 1747.64   9
   4  -2 -12 145925. 1709.21   9
   4  -2 -12 146084. 2377.28  10
   4   2 -12 152588. 2408.28  10
   4  -2 -11 19323.6 1540.52  16
   4   2 -11 21121.2 623.617  13
  -4   2  11 21292.4 1227.59   2
  -4  -2  11 21090.4 1279.12   2
   4   2 -11 23005.4 944.269  10
   4  -2 -11 21404.0 642.955   9
   4  -2 -11 21871.8 923.723  10
   4   2 -11 21792.4 671.499   9
  -4  -2  11 21276.5 1462.10  17
  -4   2  11 22096.9 1261.50  17
   4  -2 -11 21426.8 710.515  13
   4   2 -10 10751.9 921.540  18
  -4   2  10 10915.7 844.585  17
  -4  -2  10 11054.8 1066.17  17
   4  -2 -10 11567.8 460.826   9
  -4   2  10 11622.6 869.557   2
  -4  -2  10 10543.9 886.370   2
   4  -2 -10 11315.1 1144.53  16
   4   2 -10 10719.1 480.597   9
  -4   2   9 12766.5 862.347   2
  -4  -2   9 12530.1 936.839   2
   4  -2  -9 11757.4 1129.26  16
   4   2  -9 11560.8 884.642  18
  -4   2   9 12151.3 863.882  17
  -4  -2   9 12494.9 1102.91  17
  -4   2   8 113098. 2441.73   2
  -4  -2   8 112457. 2715.81   2
   4  -2  -8 109080. 3193.12  16
   4   2  -8 106923. 2513.27  18
  -4   2   8 106825. 2444.25  17
  -4  -2   8 112159. 3199.72  17
  -4   2   7 329.973 140.038   2
  -4  -2   7 468.737 186.547   2
   4   2  -7 324.697 220.941  16
  -4  -2   7 566.200 223.153  17
  -4   2   7 767.005 215.983  17
   4   2  -7 450.635 166.135  18
  -4   2   6 323781. 3807.60   2
  -4  -2   6 331713. 4098.78   2
  -4  -2   6 306786. 3992.83  19
   4   2  -6 327124. 4062.28  18
  -4   2   6 313221. 3985.74  17
  -4  -2   6 338197. 4932.57  17
   4  -2  -6 326287. 4288.72   3
  -4   2   5 13302.5 643.732   1
  -4  -2   5 13298.4 735.359   2
  -4   2   5 12479.4 750.299   2
  -4  -2   5 14065.2 940.378  19
   4   2  -5 11875.5 798.840  18
  -4   2   5 12916.9 843.807  17
  -4  -2   5 14102.6 924.224  17
   4  -2  -5 13020.2 921.324   3
  -4   2   4 47091.8 1489.44   1
  -4  -2   4 52132.9 1222.93   2
  -4   2   4 51800.4 1603.08   2
  -4  -2   4 48242.7 1848.24  19
   4  -2  -4 50668.9 1933.08   3
  -4  -2   4 50884.1 1583.89  17
   4   2  -4 46556.6 1786.42  18
  -4   2   4 43697.2 1761.58  17
   4  -2  -4 51886.1 2239.73  18
  -4  -2   3 1846.63 191.947   2
  -4   2   3 1672.43 385.241   2
  -4   2   3 2254.83 309.791   1
   4   2  -3 1477.85 317.938  18
  -4  -2   3 1939.13 293.266  17
  -4  -2   3 1589.77 320.343  19
   4  -2  -3 1461.25 351.499  18
   4  -2  -3 1856.03 388.874   3
  -4   2   2 169039. 2270.17   1
  -4   2   2 177753. 3097.35   2
  -4  -2   2 170680. 1623.25   2
  -4  -2   2 178546. 2918.29  19
   4  -2  -2 181090. 3199.25  18
   4   2  -2 187695. 2657.85  18
  -4  -2   2 167548. 2643.68  17
   4  -2  -2 179130. 3249.57   3
   4   2  -1 264.870 116.774  18
  -4  -2   1 464.411 170.918  19
   4  -2  -1 671.144 191.802  18
  -4   2   1 336.268 143.162   2
  -4   2   1 305.492 97.6744   1
  -4  -2   1 830.873 235.150  17
  -4  -2   1 660.490 128.825   4
   4  -2  -1 308.053 179.721   3
  -4   2   0 51695.0 1152.14   1
  -4  -2   0 49891.1 1619.54   1
  -4  -2   0 49057.4 1344.21  19
   4   2   0 50540.9 1092.84  18
   4  -2   0 50677.8 1492.96   3
  -4  -2   0 49735.7 1335.00   4
  -4   2   0 47053.4 1198.25   2
  -4   2  -1 23922.0 798.644   1
  -4  -2  -1 25697.2 1214.23   1
  -4  -2  -1 25235.8 945.988  19
  -4  -2  -1 25526.7 1235.97   4
   4  -2   1 24480.4 949.995   3
   4   2   1 23887.3 723.441  18
   4   2   2 114870. 1588.82  18
  -4   2  -2 117795. 1822.78   1
  -4  -2  -2 112450. 2839.88   1
  -4  -2  -2 114935. 2027.32  19
  -4  -2  -2 116552. 1723.41  16
   4  -2   2 115824. 1943.07   3
  -4  -2  -2 115262. 3108.16   4
   4   2   3 11242.9 514.840  18
  -4  -2  -3 11206.8 670.212  19
  -4   2  -3 12190.9 606.474   1
   4   2   3 11464.7 726.171   2
  -4  -2  -3 11302.6 1044.03   1
  -4   2  -3 11496.0 1036.39   4
   4  -2   3 11500.0 591.717   3
  -4  -2  -3 11244.0 973.528   4
  -4  -2  -3 11050.9 572.950  16
  -4  -2  -4 566632. 5354.76  19
  -4   2  -4 643512. 4610.96   1
   4   2   4 626117. 9113.29   2
  -4  -2  -4 575733. 7121.54   1
  -4  -2  -4 634997. 4667.02  16
   4  -2   4 590579. 4123.88   3
  -4  -2  -4 561519. 6859.60   4
  -4   2  -4 578206. 7100.62   4
  -4   2  -5 74393.6 1663.95   1
  -4  -2  -5 81176.3 2319.57   1
  -4  -2  -5 75662.0 1737.43  16
   4   2   5 74860.7 1347.95  17
  -4   2  -5 75112.7 2500.35   4
   4  -2   5 74115.6 1430.75   3
  -4  -2  -5 78629.1 2559.57   4
  -4   2  -6 461709. 4407.88   1
  -4  -2  -6 452535. 4636.25  16
   4   2   6 452319. 3554.60  17
  -4   2  -6 454416. 4483.16  16
   4  -2   6 461720. 3507.59   3
  -4  -2  -6 454907. 6240.95   4
  -4   2  -7 11.0240 115.116   1
   4   2   7-282.666 264.994   2
  -4  -2  -7 20.4935 126.932  16
  -4   2  -7-23.3755 119.612  16
   4   2   7 181.927 104.764  17
   4  -2   7 87.5695 100.013  17
  -4  -2  -7 42.5507 150.697   4
  -4   2  -7 132.646 168.980   4
  -4   2  -8 14734.3 968.586   1
   4   2   8 15371.6 1659.32   2
  -4   2  -8 15192.5 965.289  16
  -4  -2  -8 14092.8 970.399  16
   4  -2   8 15091.6 920.834  17
  -4  -2  -8 15296.6 1179.05   4
  -4   2  -8 16239.0 1162.26   4
   4   2   9-553.380 341.848   2
  -4   2  -9-110.858 153.598   4
  -4  -2  -9-8.91067 210.515   4
   4  -2   9 106.789 133.037  17
  -4  -2  -9 3.89917 177.347  16
  -4   2  -9 238.967 155.344  16
  -4   2 -10 153322. 1670.62  15
  -4   2 -10 149760. 3607.96  16
  -4  -2 -10 151658. 3717.82  16
  -4  -2 -10 151876. 1820.24  15
  -4  -2 -10 146933. 1572.41  14
  -4  -2 -10 156470. 1888.31   7
  -4  -2 -10 151595. 2126.11  12
  -4   2 -10 148593. 1775.60  12
  -4  -2 -10 159032. 1738.02  11
  -4   2 -10 150621. 1694.68  11
  -4   2 -10 152384. 1840.67  10
  -4  -2 -10 150641. 1852.16  10
   4   2  10 151334. 4566.35   2
   4  -2  10 152667. 3245.91  17
  -4  -2 -10 155219. 3983.27   4
  -4   2 -10 160266. 3732.45   4
  -4  -2 -11 767.483 125.797  14
  -4   2 -11 884.257 147.555  15
  -4  -2 -11 871.868 157.703  15
  -4   2 -11 1078.67 178.982   7
  -4  -2 -11 1014.34 179.514   7
  -4   2 -11 1091.01 190.219  12
  -4  -2 -11 848.455 150.169  11
  -4  -2 -11 687.579 165.390  12
  -4   2 -11 1000.20 157.174  11
  -4   2 -11 892.761 154.838  10
  -4  -2 -11 1019.92 180.398  10
   4   2  11 837.031 323.638   2
   4  -2  11 416.697 206.656  17
  -4  -2 -11 757.416 340.022  16
  -4   2 -11 820.910 352.362  16
  -4  -2 -11 1027.56 342.621   4
  -4   2 -11 202.864 200.704   4
  -4   2 -12 86361.1 1458.75   7
  -4  -2 -12 88500.2 1594.30   7
  -4   2 -12 86010.5 1475.87  12
  -4  -2 -12 88388.4 1765.37  12
   4  -2  12 86467.1 2737.02  17
   4  -2  12 79945.2 3516.45   2
  -4  -2 -12 85153.0 1461.43  15
  -4  -2 -12 87035.6 3301.85  16
  -4   2 -12 85029.1 1307.51  15
  -4   2 -12 87534.3 1570.81  10
  -4  -2 -12 86657.9 1569.71  10
  -4   2 -13 427.419 143.510  12
  -4  -2 -13 446.416 178.863  12
  -4   2 -13 326.670 91.0657  15
  -4   2 -13 358.240 123.695  10
  -4  -2 -13 584.115 149.617  10
  -4  -2 -13 424.769 128.464   7
  -4   2 -13 754.122 164.254   7
  -4  -2 -14 397.791 209.680  12
  -4   2 -14 212.071 164.784  12
  -4   2 -14 182.653 126.955  15
  -4   2 -14 441.146 150.022  10
  -4  -2 -14 551.273 143.347  10
  -4  -2 -14 321.650 124.269   7
  -4   2 -14 456.098 140.533   7
  -4   2 -15 92.6270 141.551  10
  -4  -2 -15 141.662 155.438  10
  -4   2 -15 195.189 104.909   7
  -4  -2 -15 152.185 141.416   7
  -4   2 -15 176.938 176.670  12
  -4  -2 -16 52868.7 1179.90  12
  -4   2 -16 50891.8 1345.28  10
  -4  -2 -16 50834.9 1325.26  10
  -4   2 -16 50700.1 1093.33  12
  -4  -2 -16 48451.3 1275.66   7
  -4   2 -16 46683.5 1092.55   7
  -4  -2 -17 7.25802 144.867  10
  -4   2 -17-154.597 168.384  10
  -4  -2 -17-287.234 186.604   7
  -4  -2 -18 18059.3 440.462   7
  -4  -2 -18 18362.7 500.044  10
   4   3 -18 2458.68 152.155   7
   4   3 -18 2608.31 134.851   9
   4  -3 -18 2502.24 156.230  10
   4  -3 -17 16240.6 424.386   7
   4   3 -17 15872.8 469.161   7
   4   3 -17 14634.4 410.070  10
   4  -3 -17 15536.7 483.747  10
   4   3 -17 15595.1 399.820   9
   4  -3 -16 1635.88 171.830   7
   4   3 -16 1328.96 164.678  10
   4  -3 -16 1813.82 202.857  10
   4   3 -16 1664.40 159.571   9
   4  -3 -15 5513.95 310.338   9
   4   3 -15 5714.06 372.323  10
   4  -3 -15 6034.83 412.673  10
   4   3 -15 5923.43 313.397   9
   4   3 -15 6136.30 304.333  13
   4  -3 -15 5562.91 343.438   7
   4   3 -14 619.448 148.267  10
   4  -3 -14 689.803 164.926  10
   4  -3 -14 866.380 145.063   9
   4   3 -14 898.146 146.486   9
   4  -3 -14 779.562 157.719   7
   4   3 -14 748.834 125.193  13
   4  -3 -13 63661.7 1152.36   9
   4   3 -13 66775.7 1530.01  10
   4   3 -13 65180.0 1145.67   9
   4  -3 -13 63728.8 1539.51  10
   4  -3 -13 65017.4 1339.68   7
   4   3 -13 64305.9 1080.91  13
   4  -3 -13 63773.8 1252.68  13
   4   3 -12 34.5012 82.1896  13
   4  -3 -12 234.508 94.3453  13
  -4   3  12-16.4959 117.399   2
  -4  -3  12 299.402 179.842   2
  -4  -3  12-244.717 226.206  17
   4  -3 -12-30.1205 199.950  16
   4   3 -12 341.341 149.886  10
   4  -3 -12 206.635 132.849  10
   4  -3 -12 97.9444 89.5316   9
   4   3 -12 161.612 91.8273   9
   4  -3 -12 150.046 123.676   7
   4  -3 -11 68682.0 2955.01  16
   4   3 -11 69321.6 1159.11  13
   4  -3 -11 67445.8 1202.12   9
   4  -3 -11 70530.7 1694.37  10
   4   3 -11 72743.5 1721.01  10
   4  -3 -11 69579.5 1384.11  13
  -4   3  11 74553.7 2327.82  17
  -4  -3  11 73268.2 2849.67  17
   4   3 -11 69006.2 1255.52   9
  -4  -3  11 69066.1 2352.99   2
  -4   3  11 70338.9 2263.41   2
   4  -3 -10 12878.0 1265.95  16
   4   3 -10 12719.1 506.429  13
   4   3 -10 11363.7 933.032  18
  -4  -3  10 13752.9 1248.19  17
  -4   3  10 12163.9 918.082  17
  -4   3  10 14380.6 992.165   2
  -4  -3  10 13410.2 1042.14   2
   4   3 -10 12873.2 565.374   9
   4  -3 -10 12574.3 591.865  13
   4  -3 -10 12722.7 520.558   9
  -4   3   9 94979.0 2442.65   2
  -4  -3   9 105134. 2911.74   2
   4  -3  -9 90194.5 3233.80  16
  -4  -3   9 97455.2 3284.33  17
   4   3  -9 99054.0 2543.62  18
  -4   3   9 92248.4 2435.09  17
  -4  -3   8 3208.66 529.929   2
  -4   3   8 3650.32 477.901   2
   4  -3  -8 2923.71 613.660  16
  -4  -3   8 3487.18 629.343  17
   4   3  -8 3017.96 435.590  18
  -4   3   8 3230.86 449.384  17
  -4  -3   7 513602. 5610.64  19
  -4   3   7 539814. 5477.70   2
  -4  -3   7 518870. 7187.66  17
   4   3  -7 528964. 5459.94  18
  -4   3   7 543364. 5785.06  17
   4   3  -6 6969.30 745.803  16
  -4  -3   6 8781.85 847.755  19
  -4  -3   6 8377.57 728.118   2
  -4   3   6 8989.94 709.537   2
  -4  -3   6 9414.14 920.306  17
   4   3  -6 8998.26 735.770  18
  -4   3   6 9252.10 787.935  17
   4  -3  -6 9615.96 866.601   3
  -4  -3   5 12636.8 955.141  19
  -4  -3   5 15099.7 1049.04  17
   4   3  -5 11741.0 946.334  18
  -4   3   5 12613.7 696.082   1
  -4  -3   5 13404.6 824.928   2
  -4   3   5 13542.5 892.519   2
   4  -3  -5 14405.3 1033.93   3
  -4  -3   4 1868.05 350.760  17
  -4  -3   4 1968.67 346.425  19
  -4   3   4 1877.07 388.661   2
  -4  -3   4 1721.48 275.131   2
  -4   3   4 1978.87 299.631   1
   4   3  -4 1752.41 365.800  18
   4  -3  -4 1918.20 370.634   3
  -4  -3   3 91123.6 2048.89  19
  -4   3   3 88060.8 1670.38   1
  -4  -3   3 87850.0 1382.19   2
  -4   3   3 90259.5 2902.45   2
   4   3  -3 89243.2 2081.68  18
  -4  -3   3 90226.7 2005.13  17
   4  -3  -3 95319.6 2390.45   3
  -4  -3   2 9986.36 630.581  19
  -4  -3   2 8665.17 267.212   2
  -4   3   2 8464.17 480.392   1
  -4   3   2 9261.19 760.011   2
   4   3  -2 9223.09 576.040  18
  -4  -3   2 8882.36 589.281  17
   4  -3  -2 9270.32 708.835   3
  -4  -3   1 332923. 3426.65  19
  -4   3   1 311308. 2859.18   1
  -4  -3   1 332603. 4604.06  17
   4   3  -1 315521. 3041.97  18
   4  -3  -1 315160. 3852.05   3
  -4   3   1 325577. 3746.50   2
  -4  -3   0 27714.2 957.840  19
  -4   3   0 27154.1 862.163   1
   4   3   0 27741.9 860.335  18
   4  -3   0 27146.5 1071.00   3
  -4   3   0 28562.2 1032.85   2
  -4  -3  -1 319305. 3157.10  19
   4   3   1 310234. 2850.36  18
  -4   3  -1 314813. 2991.22   1
  -4  -3  -2 5364.27 386.001  16
  -4  -3  -2 6178.58 441.303  19
   4   3   2 5544.34 393.231  18
  -4   3  -2 5683.23 426.778   1
   4  -3   2 5219.41 434.368   3
  -4  -3  -2 5992.47 827.268   4
  -4  -3  -3 235480. 2723.80  19
  -4  -3  -3 221035. 2593.08  16
  -4   3  -3 229496. 2757.70   1
   4   3   3 214766. 1732.64   2
   4  -3   3 223056. 2727.87   3
  -4  -3  -3 209698. 4674.80   4
  -4  -3  -4 13172.4 675.286  19
  -4  -3  -4 13793.6 708.894  16
   4   3   4 13345.3 457.805  17
  -4   3  -4 14015.4 722.334   1
   4   3   4 13852.0 716.580   2
  -4   3  -4 13614.2 1167.38   4
   4  -3   4 13541.7 672.757   3
  -4  -3  -4 13661.6 1190.22   4
  -4  -3  -5 150813. 2498.93  19
  -4   3  -5 153471. 2500.26   1
  -4  -3  -5 148992. 2511.36  16
   4  -3   5 146663. 2187.47   3
  -4  -3  -5 156365. 3937.96   4
  -4   3  -5 152090. 3727.42   4
  -4   3  -6 91.1148 128.124   1
   4  -3   6 4.71251 120.396  17
  -4  -3  -6 264.064 148.060  16
   4  -3   6 117.489 79.1655   3
  -4   3  -6 255.419 196.604   4
  -4  -3  -6 20.7779 177.825   4
  -4   3  -7 21430.6 1080.13   1
   4   3   7 20104.4 1830.97   2
  -4  -3  -7 20032.1 1080.87  16
   4  -3   7 20575.6 1070.00  17
  -4   3  -7 22621.0 1391.46   4
  -4  -3  -7 21528.7 1478.97   4
   4   3   8 22630.1 1917.50   2
  -4   3  -8 25470.6 1286.68   1
   4  -3   8 23884.8 1221.57  17
  -4  -3  -8 25267.6 1315.27  16
  -4  -3  -8 25352.6 1620.35   4
  -4   3  -8 25597.7 1489.37   4
   4  -3   9 50030.3 1827.93  17
  -4  -3  -9 51478.7 2369.22   4
  -4   3  -9 52390.0 2145.46   4
   4   3   9 45155.2 2460.60   2
  -4  -3  -9 49578.8 2002.35  16
  -4  -3 -10 415.230 100.517  15
  -4  -3 -10 182.261 61.2923  14
  -4   3 -10 370.550 110.908  15
  -4  -3 -10 263.670 108.343   7
  -4   3 -10 353.749 135.747  12
  -4  -3 -10 85.3250 225.194  12
  -4  -3 -10 465.612 112.542  11
  -4   3 -10 430.396 118.147  11
  -4   3 -10 432.719 124.100  10
  -4  -3 -10 237.548 96.7003  10
  -4  -3 -10 800.940 158.522   6
   4  -3  10 198.368 173.411  17
  -4  -3 -10 387.714 247.480  16
  -4   3 -10 256.533 199.492   4
  -4  -3 -11 128138. 1484.51  14
  -4  -3 -11 132570. 1916.01   6
  -4  -3 -11 131334. 1873.06   7
  -4  -3 -11 131142. 2240.80  12
  -4   3 -11 126015. 1640.05  11
  -4  -3 -11 130783. 1674.84  11
  -4   3 -11 133458. 1729.84  12
   4  -3  11 129318. 3259.50  17
  -4   3 -11 130201. 1811.13  10
  -4  -3 -11 130547. 1835.86  10
  -4   3 -11 133431. 1580.65  15
  -4  -3 -11 129629. 1823.29  15
  -4  -3 -11 130562. 3772.53  16
  -4   3 -11 137291. 3547.51   4
  -4   3 -12 495.554 139.111  12
  -4  -3 -12 143.454 242.879  12
  -4   3 -12 315.640 104.386  15
  -4  -3 -12 311.100 113.909  10
  -4   3 -12 233.056 111.841  10
  -4  -3 -12 335.748 132.609   7
  -4   3 -13 24902.5 871.600  10
  -4  -3 -13 25051.6 876.692  10
  -4  -3 -13 27151.1 913.056  15
  -4   3 -13 24349.7 675.568  15
  -4  -3 -13 25193.5 1016.52  12
  -4   3 -13 24676.1 787.670  12
  -4  -3 -13 25053.5 898.497   7
  -4  -3 -14-35.8193 176.908  10
  -4   3 -14 26.3893 131.397  10
  -4  -3 -14-107.763 187.230   7
  -4  -3 -14 467.349 356.880  12
  -4   3 -14 32.4087 154.387  12
  -4   3 -14-52.4485 124.585  15
  -4   3 -15 57534.9 1399.62  10
  -4  -3 -15 60624.1 1414.47  10
  -4  -3 -15 57343.9 1421.85   7
  -4   3 -15 59095.7 1183.86  12
  -4  -3 -15 59641.3 1410.01  12
  -4  -3 -16 1568.81 245.057  10
  -4   3 -16 1306.91 234.721  10
  -4  -3 -16 1310.79 237.442   7
  -4   3 -16 1254.17 169.968  12
  -4  -3 -17 42171.7 1153.46  10
  -4   3 -17 42089.8 892.373  10
  -4  -3 -17 39034.7 1034.64   7
  -4   3 -17 39921.1 772.992  12
  -4  -3 -18 211.702 61.6225  10
   4   4 -18 24986.8 425.698   7
   4   4 -18 23940.0 368.346   9
   4  -4 -17 8947.94 279.290   7
   4   4 -17 9619.15 347.508   7
   4  -4 -17 8666.36 336.344  10
   4   4 -17 8824.16 290.707   9
   4   4 -16 652.534 107.793  10
   4  -4 -16 653.416 124.213  10
   4   4 -16 547.793 103.312   9
   4  -4 -16 697.679 111.157   7
   4   4 -16 716.541 93.9230  13
   4   4 -15 2894.77 252.999  10
   4  -4 -15 2708.85 272.430  10
   4   4 -15 2657.21 212.540   9
   4  -4 -15 2923.56 236.594   7
   4   4 -15 3064.28 212.303  13
   4   4 -14 60489.3 1284.81  10
   4  -4 -14 58668.8 1364.43  10
   4  -4 -14 60169.8 1087.36   9
   4   4 -14 61134.9 1050.66   9
   4   4 -14 60588.0 996.215  13
   4  -4 -14 60221.6 1165.73   7
   4  -4 -13 196.682 110.952   9
   4   4 -13 307.672 108.256   9
   4   4 -13 256.540 98.4162  13
   4  -4 -13 421.882 133.178   7
   4   4 -13 189.471 129.245  10
   4  -4 -13 264.934 147.370  10
   4   4 -12 129522. 1722.13   9
   4  -4 -12 130250. 1750.53   9
   4  -4 -12 129260. 2281.80  10
   4   4 -12 126692. 1579.25  13
   4  -4 -12 126404. 1929.61   7
   4  -4 -11 514.144 154.414   7
   4  -4 -11 162.060 139.950  13
   4   4 -11 592.817 121.680  13
   4   4 -11 516.569 171.814  10
   4  -4 -11 584.050 179.517  10
  -4  -4  11 6.97271 170.185  17
   4  -4 -11 311.978 341.777  16
   4   4 -11 522.824 235.822  18
   4   4 -11 490.308 141.706   9
   4  -4 -11 551.110 138.267   9
  -4   4  11 301.403 133.088   2
  -4  -4  11 290.406 164.512   2
   4  -4 -10 42172.4 2377.01  16
   4   4 -10 44468.7 1009.77  13
   4   4 -10 42695.5 1767.41  18
  -4  -4  10 46860.8 2407.13  17
  -4  -4  10 43513.0 1971.37   2
  -4   4  10 42412.1 1772.86   2
   4   4 -10 41527.3 1087.00   9
   4  -4 -10 41140.7 1194.17  13
   4  -4 -10 45184.3 1054.24   9
   4   4 -10 48523.2 1502.23  10
   4   4  -9 148.256 125.418  18
  -4   4   9 282.968 196.752   2
  -4  -4   9 578.390 273.508   2
   4  -4  -9-52.8532 249.569  16
  -4  -4   9 88.3812 247.620  17
  -4  -4   8 446413. 7369.22  17
   4   4  -8 421990. 5117.44  18
  -4  -4   8 473044. 5623.41  19
  -4  -4   8 439035. 6132.98   2
  -4   4   8 456163. 5531.78   2
   4  -4  -8 423445. 6997.79  16
   4   4  -7 590.460 253.134  18
  -4  -4   7 356.579 220.102  19
  -4   4   7 552.278 254.705   2
  -4  -4   7 479.149 206.873   2
  -4  -4   7 435.664 302.663  17
   4  -4  -6 246896. 4558.46   3
  -4  -4   6 226957. 3502.91   2
  -4   4   6 232846. 4000.12   2
  -4  -4   6 234695. 4907.48  17
   4   4  -6 233312. 4233.96  18
  -4  -4   6 219976. 4244.15  19
   4  -4  -5 61869.9 2199.81   3
  -4  -4   5 66448.3 2363.56  17
   4   4  -5 61078.7 2407.09  18
  -4   4   5 67657.6 1881.57   1
  -4  -4   5 59401.1 1599.75   2
  -4   4   5 62600.0 2219.30   2
  -4  -4   5 58101.1 1915.99  19
   4  -4  -4 798.829 266.106   3
   4   4  -4 776.186 254.424  18
  -4  -4   4 1259.08 264.992  19
  -4   4   4 492.721 295.536   2
  -4  -4   4 980.075 202.640   2
  -4  -4   4 1258.23 319.883  17
   4  -4  -3 49031.0 1728.68   3
  -4  -4   3 42814.0 1044.38   2
  -4   4   3 45312.6 1160.20   1
  -4   4   3 44455.9 2096.20   2
   4   4  -3 44777.7 1441.22  18
  -4  -4   3 50841.0 1573.76  17
  -4  -4   3 45827.4 1421.16  19
   4  -4  -2 75767.6 2023.47   3
  -4   4   2 73772.8 1435.62   1
  -4   4   2 80400.2 2334.67   2
   4   4  -2 72760.4 1643.10  18
  -4  -4   2 73336.2 1707.17  17
  -4  -4   2 75679.4 1724.92  19
   4  -4  -1 5872.82 542.736   3
  -4   4   1 5047.09 522.130   2
  -4   4   1 5179.09 391.803   1
  -4  -4   1 5448.93 559.343  17
   4   4  -1 5277.11 416.221  18
  -4  -4   1 5740.70 464.505  19
   4  -4   0 138326. 2460.88   3
  -4   4   0 136460. 2469.92   2
   4   4   0 142236. 2095.47  18
  -4   4   0 135178. 2017.52   1
  -4  -4   0 141927. 2231.38  19
   4  -4   1 417.553 153.784   3
  -4  -4  -1 440.835 137.488  19
   4   4   1 481.048 142.129  18
  -4   4  -1 415.410 123.541   1
  -4  -4  -1 312.771 97.5751  16
  -4   4  -2 38178.7 1148.40   1
  -4  -4  -2 34801.8 982.053  16
   4  -4   2 38106.8 1235.51   3
   4   4   2 36190.8 1094.59  18
  -4  -4  -2 37364.6 1132.36  19
   4  -4   3 70890.7 1661.04   3
  -4  -4  -3 70270.9 3042.56   4
  -4   4  -3 68906.9 1614.48   1
  -4  -4  -3 70595.3 1556.06  19
  -4  -4  -3 66999.0 1471.94  16
   4  -4   4 347849. 3663.99   3
  -4  -4  -4 342145. 6588.94   4
  -4   4  -4 364972. 3895.40   1
  -4  -4  -4 359829. 3573.33  19
  -4  -4  -4 354061. 3638.24  16
  -4   4  -5 12693.7 1160.25   4
   4  -4   5 9785.44 612.744   3
  -4  -4  -5 10480.8 1153.45   4
  -4   4  -5 10424.5 698.886   1
  -4  -4  -5 10391.1 642.167  19
  -4  -4  -5 10340.7 689.682  16
  -4   4  -6 154366. 3873.95   4
   4  -4   6 151832. 2383.52   3
  -4  -4  -6 143706. 2747.25  16
   4  -4   6 152030. 2932.75  17
  -4  -4  -6 158502. 4372.57   4
  -4   4  -6 150358. 2799.23   1
  -4  -4  -7 815.560 370.026   4
  -4   4  -7 544.844 248.907   4
  -4   4  -7 933.352 250.671   1
   4  -4   7 817.263 249.058  17
  -4  -4  -7 714.800 229.135  16
  -4   4  -8 1173.49 335.207   4
   4  -4   8 665.034 213.412  17
  -4  -4  -8 717.632 240.861  16
  -4   4  -8 1631.15 354.872   1
  -4  -4  -9 2405.81 234.483   7
  -4   4  -9 2416.80 477.091   4
  -4  -4  -9 1871.67 278.886  12
  -4   4  -9 2441.38 233.040  12
  -4   4  -9 2535.68 498.969   1
  -4  -4  -9 2410.51 242.738   6
  -4  -4  -9 2339.54 464.070  16
  -4  -4  -9 2528.60 253.470  15
   4  -4   9 2299.26 425.013  17
  -4  -4 -10 96480.3 1602.23  15
  -4  -4 -10 91925.1 2990.71  16
  -4   4 -10 93712.2 1285.66  15
  -4  -4 -10 92665.8 1524.46   7
  -4   4 -10 95934.0 2992.33   4
  -4  -4 -10 92223.7 1356.09  11
  -4   4 -10 93292.1 1351.72  11
  -4  -4 -10 91274.4 1999.15  12
  -4   4 -10 95470.0 1424.82  12
  -4   4 -10 94508.4 1447.70  10
  -4  -4 -10 93495.8 1474.94  10
  -4   4 -10 86605.5 1983.61   5
  -4  -4 -10 97151.5 1559.22   6
   4  -4  10 92566.1 2721.71  17
  -4   4 -10 93592.1 1381.87   9
  -4   4 -11 6728.85 353.303  15
  -4  -4 -11 8553.43 524.382  15
  -4  -4 -11 6794.43 885.374  16
  -4  -4 -11 6444.86 431.406   7
  -4   4 -11 6734.58 793.383   4
  -4  -4 -11 6672.06 571.241  12
  -4   4 -11 7233.98 410.821  12
  -4  -4 -11 6425.97 409.987  10
  -4   4 -11 6568.25 405.314  10
  -4  -4 -11 6756.36 444.624   6
   4  -4  11 5961.27 739.077  17
  -4   4 -11 6736.74 403.929   9
  -4  -4 -12 84683.0 1969.31  12
  -4   4 -12 84233.0 1393.05  12
  -4  -4 -12 87302.2 1681.04   6
  -4  -4 -12 87073.1 1622.25   7
  -4   4 -12 83443.2 1537.51   9
  -4   4 -12 83459.9 1217.43  15
  -4  -4 -12 86641.9 1594.46  15
  -4  -4 -12 82858.2 1517.39  10
  -4   4 -12 85523.2 1518.64  10
  -4   4 -13 4820.51 383.428  10
  -4  -4 -13 4815.06 387.138  10
  -4  -4 -13 4803.38 407.781   7
  -4  -4 -13 6238.52 646.381  12
  -4   4 -13 4982.17 356.185  12
  -4   4 -14 12629.9 635.791  10
  -4  -4 -14 12926.7 637.083  10
  -4   4 -14 12474.4 536.717  12
  -4  -4 -14 12636.3 668.749   7
  -4   4 -15 4326.30 314.736  12
  -4  -4 -15 5175.89 438.301   7
  -4  -4 -15 5227.72 415.035  10
  -4   4 -15 4962.29 410.443  10
  -4   4 -16 66180.1 1078.68  12
  -4  -4 -16 64946.2 1485.08   7
  -4   4 -16 69924.9 1513.34  10
  -4  -4 -16 66628.9 1437.74  10
  -4  -4 -17 407.300 115.905   7
  -4  -4 -17 292.771 108.590  10
   4   5 -17 16121.8 412.663   7
   4  -5 -17 14790.2 382.359  10
   4   5 -17 15276.3 356.678   9
   4   5 -16 3912.39 217.865   9
   4  -5 -16 3451.84 240.777  10
   4  -5 -16 3848.36 205.110   7
   4   5 -16 3734.61 188.363  13
   4   5 -15 7583.57 335.982   9
   4  -5 -15 7132.96 405.236  10
   4   5 -15 7473.19 313.376  13
   4  -5 -15 7791.03 342.384   7
   4  -5 -14-83.8539 137.300  10
   4   5 -14 26.0579 66.6748  13
   4   5 -14 5.54778 85.7686   9
   4  -5 -14-38.7307 99.5820   7
   4  -5 -13 71690.7 1592.03  10
   4   5 -13 71132.5 1135.17  13
   4   5 -13 73000.5 1235.17   9
   4  -5 -13 75307.8 1337.20   7
   4  -5 -12 577.971 185.573  10
   4  -5 -12 701.925 161.483   7
   4  -5 -12 796.576 160.372   9
   4   5 -12 706.229 149.062   9
   4   5 -12 887.296 142.143  13
  -4   5  11 23265.4 1416.68   2
   4   5 -11 24515.6 754.929  13
  -4  -5  11 26589.2 1820.33  17
   4  -5 -11 23628.1 1863.49  16
   4   5 -11 23493.2 820.836   9
   4  -5 -11 24733.0 831.946   9
   4  -5 -11 25487.5 1056.63  10
  -4   5  10 45997.6 1948.39   2
   4   5 -10 43514.5 1079.78  13
   4   5 -10 40519.2 1716.66  18
  -4  -5  10 44513.7 2403.30  17
   4  -5 -10 41062.3 1385.38  10
   4  -5 -10 45220.1 1162.88   9
   4  -5 -10 40467.8 2425.64  16
   4   5 -10 42463.8 1182.70   9
  -4  -5  10 45406.3 1110.49  20
  -4   5   9 31088.1 1590.39   2
   4   5  -9 32539.5 1026.97  13
   4  -5  -9 31139.0 2088.87  16
   4  -5  -9 31191.5 1006.70   9
   4   5  -9 32140.8 1078.67   9
  -4  -5   9 32636.9 2079.30  17
   4   5  -9 32500.3 1486.09  18
  -4  -5   9 31970.8 1079.57  20
  -4   5   8 9858.36 900.693   2
  -4  -5   8 10294.8 1177.60  17
   4   5  -8 9642.75 813.742  18
   4  -5  -8 8937.46 1099.21  16
  -4  -5   8 9968.26 966.312  19
  -4  -5   7 320075. 4516.34   2
  -4   5   7 331115. 5233.32   2
   4  -5  -7 325015. 6300.01  16
  -4  -5   7 330457. 5715.42  19
  -4   5   6 276.937 215.662   2
   4   5  -6 201.224 221.145  18
  -4  -5   6 446.279 196.359  19
  -4  -5   6 511.759 298.920  17
   4  -5  -6 164.893 168.773   3
  -4   5   5 32394.5 1895.21   2
  -4  -5   5 32773.6 1407.47  19
  -4  -5   5 34135.5 1774.85  17
   4   5  -5 31726.1 1719.00  18
   4  -5  -5 33862.2 1740.95   3
  -4   5   4 1872.90 563.266   2
  -4   5   4 1642.71 234.405   1
   4   5  -4 1724.40 342.487  18
  -4  -5   4 1391.47 286.867  19
  -4  -5   4 1776.73 367.309  17
   4  -5  -4 1725.23 373.594   3
  -4   5   3 94503.5 1699.26   1
  -4  -5   3 93802.4 2198.86  17
   4   5  -3 97564.8 2178.01  18
  -4  -5   3 92393.2 2056.86  19
   4  -5  -3 94969.0 2543.45   3
  -4   5   2 4214.45 366.878   1
   4   5  -2 4817.17 451.227  18
  -4  -5   2 5023.34 456.321  17
  -4  -5   2 4453.81 445.370  19
  -4   5   2 4200.32 572.550   2
   4  -5  -2 4945.33 549.952   3
  -4   5   1 395812. 3595.05   1
  -4  -5   1 373159. 4406.39  17
   4   5  -1 398495. 3846.26  18
  -4  -5   1 378180. 3929.13  19
  -4   5   1 383529. 4854.42   2
   4   5   0 461.860 143.840  18
  -4  -5   0 315.891 125.051  19
  -4   5   0 372.611 142.903   1
  -4   5   0 188.592 107.592   2
   4  -5   0 503.218 173.596   3
  -4   5  -1 106184. 1981.20   1
  -4  -5  -1 103722. 2008.05  19
   4   5   1 108325. 2012.11  18
   4  -5   1 104621. 2258.60   3
  -4  -5  -2 50151.0 1203.31  16
  -4   5  -2 48183.4 1390.32   1
  -4  -5  -2 49885.0 1389.66  19
   4   5   2 47600.2 1376.51  18
   4  -5   2 48258.1 1509.28   3
  -4   5  -3 33644.3 1211.19   1
  -4  -5  -3 34667.3 1167.88  19
  -4  -5  -3 33088.6 1065.71  16
   4  -5   3 34852.6 1264.70   3
  -4   5  -4 52.1512 128.908   1
  -4  -5  -4 140.683 106.896  19
  -4  -5  -4 251.808 120.868  16
   4  -5   4 285.350 153.390   3
  -4   5  -5 124909. 2576.22   1
  -4  -5  -5 120232. 2381.60  16
  -4  -5  -5 123784. 2317.66  19
   4  -5   5 117472. 2298.88   3
  -4   5  -5 122203. 3840.89   4
  -4   5  -6 3955.92 664.189   4
   4  -5   6 4105.17 435.370   3
   4  -5   6 3147.62 472.387  17
  -4  -5  -6 3893.84 473.539  16
  -4   5  -6 4142.67 512.213   1
  -4   5  -7 4974.49 724.529   4
   4  -5   7 5463.32 625.562  17
  -4  -5  -7 4454.82 545.061  16
  -4   5  -7 4642.54 572.855   1
  -4   5  -8 1996.41 450.708   4
  -4   5  -8 1719.44 396.646   1
   4  -5   8 2169.23 418.775  17
  -4  -5  -8 1752.30 370.882  16
   4  -5   9 37907.8 1741.64  17
  -4   5  -9 38430.9 812.648  15
  -4  -5  -9 37765.3 1051.59  15
  -4  -5  -9 36797.2 1795.01  16
  -4  -5  -9 37403.1 938.822   7
  -4   5  -9 38354.7 1949.48   4
  -4   5  -9 38452.5 897.691  12
  -4  -5  -9 36897.3 1400.48  12
  -4   5  -9 37699.5 1888.63   1
  -4   5  -9 36340.0 1110.30   5
  -4  -5  -9 37769.5 944.442   6
  -4  -5  -9 35883.0 856.517  10
  -4   5  -9 36627.6 847.248   9
  -4  -5 -10 9090.93 967.982  16
  -4   5 -10 8942.01 395.705  15
  -4  -5 -10 8673.78 482.660   7
  -4   5 -10 9020.25 942.457   4
  -4   5 -10 9160.20 446.891  12
  -4  -5 -10 10378.7 770.163  12
  -4  -5 -10 8553.65 419.641  11
   4  -5  10 8988.59 883.774  17
  -4   5 -10 8103.67 587.188   5
  -4  -5 -10 9159.16 496.288   6
  -4  -5 -10 8447.03 444.829  10
  -4   5 -10 8777.84 432.080   9
  -4   5 -11 85747.2 1420.15   9
  -4   5 -11 84967.0 1350.64  12
  -4  -5 -11 90575.2 2181.37  12
  -4  -5 -11 86234.6 1668.22  15
  -4   5 -11 84634.0 2052.63   5
  -4  -5 -11 87807.9 1605.01   6
  -4  -5 -11 82899.3 1450.23  10
  -4  -5 -11 88671.3 1589.09   7
  -4   5 -12 8415.96 437.777  12
  -4  -5 -12 8215.99 516.625   7
  -4  -5 -12 8762.94 547.418   6
  -4  -5 -12 8072.78 472.493  10
  -4   5 -12 8468.58 485.319   9
  -4   5 -13 451.286 136.372  12
  -4  -5 -13 474.054 173.068   6
  -4  -5 -13 479.775 144.905  10
  -4  -5 -13 330.727 140.072   7
  -4   5 -14 11669.7 558.583   9
  -4  -5 -14 12899.6 678.999   7
  -4  -5 -14 11652.6 674.453   6
  -4   5 -14 11779.8 497.814  12
  -4  -5 -14 11323.3 577.261  10
  -4  -5 -15 43487.8 1230.84   7
  -4   5 -15 40679.2 875.083  12
  -4  -5 -15 43039.1 1116.79  10
  -4  -5 -16-258.608 202.635   7
  -4   5 -16-156.233 137.721  12
  -4  -5 -16-68.0212 137.279  10
  -4  -5 -17 33168.4 648.691  10
  -4  -5 -17 35353.3 748.382   7
   4   6 -17 5592.08 196.788   9
   4   6 -17 5464.45 211.566   7
   4   6 -16 2237.97 134.522  13
   4  -6 -16 2470.12 175.835  10
   4   6 -16 2379.61 161.603   9
   4  -6 -15 76.8795 75.3228  10
   4  -6 -15 145.081 66.5787   6
   4   6 -15 191.126 62.7650  13
   4   6 -15 171.887 78.4243   9
   4   6 -14 47712.0 836.321  13
   4   6 -14 47695.9 892.313   9
   4  -6 -14 46179.3 1080.27  10
   4  -6 -13-71.0163 157.336  10
   4   6 -13 89.6867 105.655   9
   4   6 -13 276.039 96.2290  13
   4  -6 -12 96936.2 1943.49  10
   4   6 -12 94215.0 1533.55   9
   4   6 -12 95746.2 1417.32  13
   4  -6 -11 327.018 155.661  10
   4   6 -11 402.096 147.038   9
   4   6 -11 367.002 124.110  13
   4  -6 -10 12992.9 1452.58  16
  -4   6  10 12688.6 1102.59   2
   4   6 -10 12863.2 633.727  13
  -4  -6  10 13957.2 1364.29  17
   4  -6 -10 12381.2 796.889  10
  -4  -6  10 12887.4 648.233  20
   4   6 -10 12806.2 685.011   9
   4  -6  -9 10425.6 1268.60  16
  -4   6   9 11066.6 1023.64   2
   4   6  -9 11211.8 665.563  13
   4   6  -9 11043.7 606.589   5
   4  -6  -9 11039.8 794.142  10
  -4  -6   9 10916.3 639.902  20
   4   6  -9 11388.9 632.320   9
  -4  -6   9 11399.8 1238.79  17
   4   6  -9 10475.3 870.355  18
   4   6  -8 77049.7 1546.55  13
  -4   6   8 80274.3 2773.30   2
  -4  -6   8 87612.4 3387.75  17
   4   6  -8 80991.3 2443.78  18
   4   6  -8 80151.2 1509.72   9
   4  -6  -8 72783.0 3382.06  16
  -4  -6   8 85429.3 3256.47  19
  -4  -6   8 80740.2 1568.46  20
  -4  -6   7 45224.4 2384.64  17
   4   6  -7 45416.9 1981.00  18
  -4  -6   7 43077.3 2046.51  19
   4  -6  -7 42521.1 2516.16  16
  -4   6   7 46116.6 2173.84   2
  -4  -6   6 167612. 4325.07  17
   4   6  -6 176525. 4663.56  18
   4  -6  -6 178145. 4521.03   3
  -4   6   6 162754. 4390.79   2
  -4  -6   6 177245. 3654.65  19
  -4  -6   5 59381.2 2340.62  17
   4   6  -5 58479.6 2340.30  18
   4  -6  -5 60061.7 2479.99   3
  -4   6   5 54367.8 2963.83   2
  -4  -6   5 63378.6 2000.15  19
  -4   6   4 956.249 470.385   2
  -4   6   4 592.816 150.384   1
   4   6  -4 1037.64 286.816  18
  -4  -6   4 1590.85 317.338  19
   4  -6  -4 1168.39 370.602   3
   4   6  -3 8484.28 672.825  18
  -4  -6   3 9328.56 696.487  17
  -4   6   3 8628.57 993.654   2
   4  -6  -3 8188.44 808.190   3
  -4   6   3 8551.58 545.728   1
  -4  -6   3 6965.62 607.307  19
   4   6  -2 217679. 3174.62  18
  -4  -6   2 210783. 2929.88  17
   4  -6  -2 223020. 3905.74   3
  -4   6   2 204200. 2714.43   1
  -4  -6   2 195480. 3080.19  19
   4   6  -1 47804.9 1444.18  18
  -4   6   1 46295.3 1813.92   2
   4  -6  -1 42935.8 1656.09   3
  -4   6   1 43432.8 1279.19   1
  -4  -6   1 47794.5 1484.79  19
   4   6   0 213338. 3043.67  18
  -4   6   0 219824. 3694.07   2
   4  -6   0 197902. 3433.76   3
  -4   6   0 203524. 2849.84   1
  -4  -6   0 215338. 3114.27  19
   4   6   1 7192.43 574.365  18
   4  -6   1 7320.32 648.710   3
  -4  -6  -1 6926.47 567.138  19
  -4   6  -1 6809.61 540.982   1
  -4   6  -2 4082.82 436.194   1
   4   6   2 4079.78 452.118  18
   4  -6   2 3856.15 471.209   3
  -4  -6  -2 4059.64 355.276  16
  -4  -6  -2 4306.81 442.929  19
  -4   6  -3 35767.2 1344.13   1
   4   6   3 37310.8 1374.13  18
   4  -6   3 38867.8 1445.74   3
  -4  -6  -3 37048.7 1151.17  16
  -4  -6  -3 37940.8 1322.67  19
  -4   6  -4 421434. 4819.66   1
   4  -6   4 424416. 4254.35  19
   4  -6   4 428895. 4780.80   3
  -4  -6  -4 410799. 4202.69  16
  -4  -6  -4 416143. 4455.66  19
   4  -6   5 331.636 147.120   3
  -4   6  -5 313.083 201.662   1
  -4  -6  -5 69.5512 123.490  19
   4  -6   5 620.119 199.274  17
  -4  -6  -5 36.3756 147.082  16
  -4   6  -6 156031. 3254.28   1
  -4  -6  -6 147504. 2959.00  16
   4  -6   6 157427. 3294.56  17
  -4   6  -6 151888. 4346.43   4
   4  -6   6 153666. 2840.82   3
  -4   6  -7 985.097 320.568   1
   4  -6   7 496.239 228.445  17
  -4  -6  -7 364.958 175.601  16
  -4   6  -7 877.275 341.569   4
  -4  -6  -8 3547.88 535.187  16
   4  -6   8 4110.35 592.987  17
  -4   6  -8 4152.93 675.154   4
  -4  -6  -8 6036.89 764.767  12
  -4   6  -8 3893.45 290.131  12
  -4  -6  -8 3945.04 312.866   7
  -4   6  -8 3806.89 594.682   1
  -4   6  -8 4225.77 294.104   9
  -4   6  -8 4180.45 347.551   5
  -4  -6  -8 3878.78 302.460   6
   4  -6   9 829.366 308.682  17
  -4  -6  -9 867.892 312.676  16
  -4  -6  -9 894.588 162.629   7
  -4   6  -9 267.904 195.250   4
  -4   6  -9 863.733 149.015  12
  -4   6  -9 1023.79 356.799   1
  -4  -6  -9 1089.74 182.823   6
  -4   6  -9 860.346 168.529   5
  -4   6  -9 960.519 163.029   9
   4  -6  10 73791.9 2614.68  17
  -4  -6 -10 72219.9 2721.00  16
  -4  -6 -10 74947.7 1424.02   7
  -4  -6 -10 74690.3 2028.76  12
  -4   6 -10 74916.6 1256.78  12
  -4   6 -10 77082.2 1298.51   9
  -4  -6 -10 76905.4 1451.28   6
  -4   6 -10 72184.5 1692.21   5
  -4  -6 -10 74720.2 1284.52  10
  -4   6 -10 77493.9 2794.73   4
  -4   6 -11 3364.98 277.947  12
  -4   6 -11 3300.05 285.670   9
  -4   6 -11 3117.79 393.976   5
  -4  -6 -11 3484.64 334.235   6
  -4  -6 -11 3386.39 337.961   7
  -4  -6 -11 2966.70 276.938  10
  -4   6 -12 44750.3 958.770  12
  -4  -6 -12 45094.3 1064.71  10
  -4  -6 -12 46037.2 1212.82   7
  -4  -6 -12 45238.1 1230.02   6
  -4   6 -12 45396.7 1084.79   9
  -4   6 -13 15844.8 557.691  12
  -4  -6 -13 14406.5 615.026  10
  -4  -6 -13 16296.9 747.124   7
  -4  -6 -13 15179.4 751.530   6
  -4   6 -13 15294.3 669.673   9
  -4   6 -14 4995.37 312.231  12
  -4  -6 -14 4687.43 358.431  10
  -4  -6 -14 5266.44 434.493   7
  -4  -6 -14 4980.55 440.687   6
  -4   6 -14 4493.64 373.409   9
  -4   6 -15 1217.99 147.301  12
  -4   6 -15 1415.34 140.693   9
  -4  -6 -15 1532.30 206.140  10
  -4  -6 -15 1464.65 234.695   7
  -4  -6 -16 43902.7 925.777  10
  -4  -6 -16 47128.4 1109.97   7
  -4  -6 -17 25.4846 56.6370   7
   4   7 -16 6066.56 231.908   9
   4   7 -16 6219.08 253.629   7
   4   7 -15 976.613 116.334   9
   4   7 -15 981.184 106.660  13
   4  -7 -15 1218.90 135.938   6
   4  -7 -14 152.921 106.806   6
   4  -7 -14 164.795 99.7415  10
   4   7 -14 245.447 110.274   9
   4   7 -14 125.456 72.8124  13
   4  -7 -13 85297.1 1517.88  10
   4   7 -13 86985.5 1293.90   9
   4   7 -13 85200.6 1196.62  13
   4  -7 -12 1453.87 240.872  10
   4   7 -12 1518.50 206.093   9
   4   7 -12 1618.60 195.837  13
  -4  -7  11 33110.1 930.139  20
   4   7 -11 33098.5 1001.02   9
   4   7 -11 32219.6 925.673  13
  -4  -7  10 11774.6 671.065  20
   4   7 -10 12731.9 664.744  13
   4   7 -10 12560.8 703.051   9
   4   7  -9 20047.7 874.340  13
  -4  -7   9 18879.2 833.758  20
   4   7  -9 19826.5 799.638   5
   4   7  -9 18688.5 1178.46  18
  -4  -7   9 22006.5 1658.52  17
   4   7  -9 19839.7 831.233   9
   4  -7  -9 20305.9 1890.88  16
  -4   7   8 18908.9 1492.86   2
   4   7  -8 17916.9 750.015  13
  -4  -7   8 19283.7 774.398  20
  -4  -7   8 14520.4 1374.30  19
   4   7  -8 16924.5 667.794   5
  -4  -7   8 17247.5 1466.71  17
   4   7  -8 18714.7 1225.44  18
   4   7  -8 17328.7 717.370   9
   4  -7  -8 17036.5 1741.06  16
  -4  -7   7 148853. 3833.60  19
  -4  -7   7 163243. 2081.37  20
   4  -7  -7 143803. 5096.84  16
  -4   7   7 161830. 4619.18   2
   4   7  -7 154630. 1995.45  13
  -4  -7   7 164760. 4373.72  17
   4   7  -7 155678. 3871.71  18
   4  -7  -6 494.602 275.757   3
   4  -7  -6 224.887 352.600  16
  -4  -7   6 349.200 238.954  17
  -4   7   6-101.931 266.810   2
  -4  -7   6 61.0851 136.320  19
   4   7  -6 398.289 295.149  18
   4  -7  -5 66774.7 2814.86   3
  -4   7   5 62655.4 3854.36   2
  -4  -7   5 62975.5 2081.40  19
   4   7  -5 63056.2 2506.31  18
  -4  -7   5 63986.3 2335.49  17
   4  -7  -4 2559.71 513.969   3
  -4   7   4 2260.29 641.116   2
  -4  -7   4 2476.08 405.160  19
   4   7  -4 3679.89 522.159  18
  -4  -7   4 3122.55 469.772  17
   4  -7  -3 101822. 3048.14   3
  -4   7   3 96452.9 1935.81   1
  -4  -7   3 96891.2 2377.69  19
   4   7  -3 95400.2 2412.36  18
  -4   7   2 5138.45 728.361   2
   4  -7  -2 4336.36 603.136   3
  -4   7   2 4109.28 416.076   1
  -4  -7   2 4078.99 489.041  19
   4   7  -2 4546.88 503.169  18
  -4   7   1 346003. 3870.97   1
  -4  -7   1 351001. 4341.54  19
   4   7  -1 359919. 4277.50  18
   4  -7   0 9392.01 820.764   3
  -4   7   0 8936.78 641.699   1
  -4  -7   0 9343.49 709.944  19
   4   7   0 8704.37 668.338  18
   4  -7   1 79413.2 2298.69   3
  -4   7  -1 73484.8 1900.15   1
  -4  -7  -1 74563.7 1982.04  19
   4   7   1 75262.9 1987.16  18
   4  -7   2 48062.7 1766.42   3
  -4  -7  -2 49966.5 1634.32  19
   4   7   2 48906.0 1647.14  18
  -4   7  -2 45438.3 1550.92   1
  -4   7  -3 51643.1 1727.01   1
   4  -7   3 54165.4 1857.82   3
   4   7   3 53780.7 1775.95  18
   4  -7   3 58574.2 1782.35  19
  -4  -7  -3 55600.5 1742.50  19
  -4  -7  -3 52134.6 1393.64  16
  -4   7  -4 6322.67 637.725   1
   4  -7   4 6310.92 645.188   3
   4   7   4 5805.40 605.835  18
  -4  -7  -4 6471.31 538.929  16
  -4  -7  -4 6498.56 608.239  19
   4  -7   4 6877.16 599.943  19
  -4  -7  -5 227758. 3686.34  19
  -4  -7  -5 221327. 3411.18  16
   4  -7   5 227566. 3741.13   3
  -4   7  -5 224645. 3941.40   1
  -4   7  -6 6320.07 715.494   1
  -4  -7  -6 6425.69 651.789  16
   4  -7   6 6809.27 723.412  17
  -4   7  -6 6956.66 993.846   4
   4  -7   6 6409.13 643.554   3
  -4  -7  -6 6631.04 373.105   6
  -4  -7  -7 25880.0 762.335   7
  -4  -7  -7 23373.9 1296.86  16
   4  -7   7 24267.3 1406.77  17
  -4  -7  -7 25997.9 762.702   6
  -4   7  -7 25472.0 799.151   5
  -4   7  -7 25871.3 1796.54   4
   4  -7   8 102537. 2974.73  17
  -4   7  -8 102668. 3456.92   4
  -4  -7  -8 102048. 1563.81   7
  -4   7  -8 100759. 1472.22  12
  -4  -7  -8 96955.8 2838.44  16
  -4   7  -8 98586.8 3081.45   1
  -4   7  -8 107752. 1506.49   9
  -4   7  -8 102070. 1702.86   5
  -4  -7  -8 101368. 1563.28   6
   4  -7   9 71129.9 2565.34  17
  -4  -7  -9 68665.8 2529.09  16
  -4   7  -9 72441.3 1542.45   5
  -4  -7  -9 73201.8 1390.57   6
  -4   7  -9 69884.6 1220.08  12
  -4  -7  -9 73935.5 1389.63   7
  -4   7  -9 69365.1 2752.73   4
  -4   7  -9 73100.7 1263.29   9
  -4   7  -9 71885.6 2829.24   1
  -4   7 -10 6161.01 361.938  12
  -4   7 -10 5896.82 482.793   5
  -4  -7 -10 6846.83 448.679   6
  -4  -7 -10 6281.08 433.153   7
  -4   7 -10 6569.68 392.404   9
  -4   7 -11 81123.2 1277.20  12
  -4  -7 -11 80339.2 1574.64   6
  -4   7 -11 78157.0 1841.36   5
  -4  -7 -11 81270.7 1562.72   7
  -4   7 -11 80563.5 1373.58   9
  -4   7 -12 43.8928 97.3647  12
  -4  -7 -12 229.341 123.374   6
  -4  -7 -12 103.144 135.950   7
  -4   7 -12-42.0028 122.780   9
  -4   7 -13 2940.63 234.352  12
  -4  -7 -13 2971.22 334.040   7
  -4  -7 -13 2273.47 293.699   6
  -4   7 -13 2569.46 275.250   9
  -4   7 -14 8165.28 353.969  12
  -4  -7 -14 8290.78 532.400   7
  -4  -7 -14 7974.29 543.710   6
  -4   7 -14 8818.38 507.910   9
  -4  -7 -15 12828.9 433.406   6
  -4   7 -15 12224.8 376.566   9
  -4  -7 -16-9.34272 79.3917   7
   4   8 -16 6689.45 208.399   9
   4   8 -15 13948.1 366.520   9
   4   8 -15 13511.9 334.528  13
   4  -8 -15 14399.1 396.654   6
   4   8 -14 40430.9 722.568   9
   4   8 -14 38537.9 672.501  13
   4  -8 -14 40800.1 845.241   6
   4   8 -13 725.260 141.074   9
   4   8 -13 677.918 123.565  13
   4   8 -12 82345.8 1355.51   9
   4   8 -12 85552.4 1308.05  13
  -4  -8  11 5553.56 392.821  20
   4   8 -11 5405.92 405.635   9
   4   8 -11 5359.27 385.624  13
  -4   8  11 5685.97 568.498  13
  -4  -8  10 191.769 146.541  20
   4   8 -10 621.960 176.661  13
   4   8 -10 246.765 146.696   9
  -4  -8   9 228.135 164.220  20
   4   8  -9 344.314 142.203   5
   4   8  -9 202.256 137.457  13
   4   8  -9 156.164 129.052   9
  -4   8   8 48600.6 2627.87   2
   4   8  -8 48502.6 1245.66  13
  -4  -8   8 45905.2 1221.44  20
   4   8  -8 46872.3 1116.71   5
   4   8  -8 47933.8 1988.02  18
  -4  -8   8 45415.7 2227.85  17
   4   8  -8 47364.3 1199.75   9
   4  -8  -8 44896.5 3033.75  16
   4   8  -7 8510.49 488.318  13
  -4  -8   7 7695.48 924.027  19
  -4  -8   7 9022.28 510.426  20
   4  -8  -7 8767.93 1431.38  16
   4   8  -7 6697.63 831.806  18
   4   8  -7 8357.99 477.266   9
  -4   8   7 7635.52 1127.49   2
  -4  -8   6 166455. 2050.68  20
  -4  -8   6 174711. 3926.49  19
   4   8  -6 156943. 1909.27  13
   4  -8  -6 165349. 5746.43  16
  -4   8   6 158565. 5916.68   2
   4   8  -6 168266. 5028.63  18
  -4  -8   5 81435.2 1345.17  20
  -4  -8   5 76733.2 2434.05  19
   4   8  -5 73509.9 1228.73  13
   4  -8  -5 74300.6 3574.19  16
   4  -8  -5 75850.5 3248.17   3
  -4   8   5 75887.9 4269.56   2
   4   8  -5 74600.8 2892.25  18
  -4   8   4 5143.84 1016.85   2
  -4  -8   4 4364.86 568.442  19
   4  -8  -4 4993.40 800.273   3
   4   8  -4 3672.10 558.192  18
  -4   8   3 24482.5 1037.03   1
  -4  -8   3 25338.4 1306.31  19
  -4   8   3 27730.5 1979.09   2
   4  -8  -3 23034.3 1581.98   3
   4   8  -3 25020.6 1312.41  18
  -4   8   2 229095. 3257.21   1
  -4  -8   2 229289. 3833.42  19
   4   8  -2 231488. 3798.71  18
   4  -8  -1 518.382 266.692   3
   4   8  -1 437.565 199.087  18
  -4  -8   1 239.001 151.739  19
  -4   8   0 64165.8 1836.19   1
  -4  -8   0 63349.2 1983.88  19
   4  -8   0 66483.8 2313.69   3
   4   8   0 61409.9 1912.44  18
  -4   8  -1 34175.9 1388.33   1
  -4  -8  -1 37330.8 1522.49  19
   4  -8   1 36673.4 1704.45   3
   4   8   1 35819.5 1477.29  18
  -4   8  -2 4150.53 511.298   1
  -4  -8  -2 4180.96 521.053  19
   4  -8   2 4376.26 585.078   3
   4   8   2 4882.57 566.398  18
   4  -8   2 4689.89 569.296  19
  -4   8  -3 12172.7 902.398   1
  -4  -8  -3 13500.4 939.421  19
   4  -8   3 15816.3 1014.38  19
   4  -8   3 15314.2 1068.20   3
   4   8   3 13692.9 970.672  18
   4  -8   4 97909.3 2689.95   3
  -4  -8  -4 101372. 2590.14  19
   4  -8   4 99810.4 2458.56  19
   4  -8   4 98671.2 2689.44  17
  -4   8  -4 94835.5 2607.46   1
   4   8   4 98457.8 2666.96  18
   4   8   5 13491.4 1028.11  18
  -4  -8  -5 14750.8 557.080   7
  -4   8  -5 14266.8 518.317  13
  -4  -8  -5 14869.2 1022.93  19
   4  -8   5 12955.3 507.408  20
  -4   8  -5 14177.7 568.058   5
  -4  -8  -5 15350.0 559.099   6
   4  -8   5 13099.4 1032.15  17
  -4   8  -5 12876.5 1010.21   1
   4  -8   5 13949.4 1004.66   3
   4   8   6 166667. 3711.15  18
  -4  -8  -6 175957. 1961.56   7
  -4   8  -6 170863. 1791.31  13
   4  -8   6 165217. 1796.04  20
  -4  -8  -6 179950. 1980.97   6
  -4   8  -6 171997. 2027.07   5
  -4   8  -6 163787. 5047.01   4
   4  -8   6 173392. 3506.56   3
   4  -8   6 176115. 3807.30  17
  -4   8  -6 174484. 3863.25   1
  -4  -8  -7 26148.9 1385.55  16
  -4   8  -7 27931.4 1952.31   4
  -4  -8  -7 27725.9 811.322   7
   4  -8   7 23503.9 1440.57  17
  -4   8  -7 26660.7 836.885   5
  -4  -8  -7 26285.9 788.455   6
  -4   8  -7 26649.7 1591.22   1
   4  -8   7 25005.4 695.418  20
   4  -8   8 6943.55 362.859  20
   4  -8   8 5340.20 710.377  17
  -4  -8  -8 6760.68 780.293  16
  -4   8  -8 6938.83 458.641   5
  -4  -8  -8 6279.54 406.936   6
  -4   8  -8 6805.30 391.660  12
  -4  -8  -8 7127.35 432.731   7
  -4   8  -8 7054.70 405.956   9
  -4   8  -8 7040.33 881.922   1
  -4   8  -8 7774.86 959.916   4
  -4   8  -9 34814.8 859.889  12
  -4   8  -9 37003.2 920.540   9
  -4  -8  -9 36757.2 998.086   7
  -4  -8  -9 36165.1 993.314   6
  -4   8  -9 35493.6 1082.24   5
  -4   8 -10 91109.9 1338.99  12
  -4   8 -10 94859.9 1472.73   9
  -4  -8 -10 90781.0 1607.33   7
  -4  -8 -10 91429.9 1618.44   6
  -4   8 -10 87951.7 1806.15   5
  -4   8 -11 91.8188 108.084  12
  -4   8 -11 98.5241 104.107   9
  -4  -8 -11 25.6358 135.986   7
  -4   8 -11 102.096 143.347   5
  -4  -8 -11 17.1102 138.413   6
  -4   8 -12 23713.6 754.826   9
  -4  -8 -12 23019.0 853.794   7
  -4  -8 -12 23210.7 857.566   6
  -4   8 -12 22974.5 622.868  12
  -4   8 -13 4888.20 359.565   9
  -4  -8 -13 4952.20 402.878   7
  -4  -8 -13 4775.56 403.015   6
  -4   8 -13 5186.87 285.541  12
  -4   8 -14 2273.94 254.063   9
  -4  -8 -14 2212.83 284.860   6
  -4  -8 -14 2254.14 276.780   7
  -4   8 -15 7719.94 265.244   9
  -4  -8 -15 8468.87 433.695   7
  -4  -8 -15 8311.56 308.594   6
   4   9 -15 3303.10 142.180  13
   4   9 -15 3727.58 166.154   9
   4  -9 -15 3788.59 180.674   6
  -4   9  15 3410.04 182.132   5
   4   9 -14 3015.74 177.678  13
   4  -9 -14 3158.87 224.393   6
   4   9 -14 3043.00 184.002   9
   4   9 -13 55023.9 873.325   9
   4   9 -13 55786.0 866.135  13
   4   9 -12 19349.0 591.677  13
   4   9 -12 18854.1 589.297   9
   4   9 -11 9878.68 495.742   9
  -4   9  11 9912.59 689.677  13
   4   9 -11 9336.98 489.240  13
  -4  -9  11 10257.6 510.720  20
   4   9 -10 18246.3 763.257   9
  -4  -9  10 20282.1 886.907  20
   4   9 -10 19435.8 831.077  13
  -4   9  10 20368.9 1301.28  13
   4   9  -9 17310.0 731.619   5
   4   9  -9 16610.9 787.661   9
  -4  -9   9 16160.6 791.387  20
   4   9  -9 16889.8 809.870  13
  -4   9   9 18555.4 1163.19  13
   4   9  -8 16116.3 661.135   5
   4   9  -8 15230.6 700.625   9
   4   9  -8 15359.3 717.585  13
  -4   9   8 16612.0 995.485  13
  -4  -9   8 15852.1 743.503  20
  -4  -9   7 120278. 3730.43  19
  -4  -9   7 124787. 1941.34  20
  -4   9   7 120428. 5011.59   2
   4   9  -7 123981. 1827.93   9
   4   9  -7 122838. 1878.09  13
  -4   9   7 132111. 2498.81  13
   4  -9  -7 114138. 5098.32  16
  -4  -9   6 5173.66 733.838  19
  -4  -9   6 5157.72 382.550  20
   4   9  -6 4941.08 362.616  13
  -4   9   6 4899.46 460.500  13
   4   9  -6 4068.06 830.764  18
  -4   9   6 6126.99 1383.85   2
   4  -9  -6 5166.26 990.450  16
   4   9  -5 50135.3 1057.06  13
  -4   9   5 49894.7 1309.71  13
  -4  -9   5 49472.8 1113.79  20
  -4  -9   5 48245.2 2044.98  19
   4   9  -5 50926.2 2521.33  18
   4  -9  -5 48888.9 2815.34  16
  -4   9   5 54520.7 3719.46   2
   4  -9  -5 49867.1 2898.88   3
   4  -9  -4 3825.50 748.203   3
   4   9  -4 3142.38 258.898  13
  -4   9   4 3641.98 338.342  13
  -4  -9   4 3585.34 299.963  20
  -4  -9   4 3666.11 552.475  19
  -4   9   4 3725.17 424.302   5
   4   9  -4 2801.63 526.199  18
  -4   9   4 3029.76 798.014   2
   4  -9  -4 3396.29 716.262  16
  -4  -9   3 23078.5 717.049  20
  -4  -9   3 24802.4 1392.79  19
  -4   9   3 23777.8 956.046   5
   4   9  -3 25498.1 1440.73  18
  -4   9   3 24265.5 1950.82   2
   4  -9  -3 22848.9 1727.40   3
   4   9  -3 24758.3 685.099  13
  -4   9   3 25525.9 840.660  13
  -4   9   2 148.388 99.9795  13
  -4  -9   2 130.710 83.3751  20
  -4   9   2 47.9074 124.899   5
   4   9  -2 326.779 187.907  18
  -4  -9   2 161.229 177.979  19
   4  -9  -2 51.4821 146.879   3
  -4   9   2-24.1564 84.4325   1
  -4   9   1 134756. 1804.08  13
  -4  -9   1 139393. 3177.58  19
  -4   9   1 141157. 1997.56   5
   4   9  -1 131429. 3011.85  18
   4  -9  -1 142812. 3834.34   3
  -4   9   1 132160. 2709.59   1
  -4   9   0 30808.6 849.432  13
  -4  -9   0 31433.9 1504.79  19
  -4   9   0 32054.0 917.546   5
   4   9   0 33115.0 1508.81  18
   4  -9   0 30641.3 1658.36  19
   4  -9   0 31927.4 1747.23   3
  -4   9   0 30028.8 1336.71   1
  -4   9  -1 17875.7 632.973  13
  -4  -9  -1 17950.0 1140.95  19
  -4   9  -1 17643.7 664.287   5
   4   9   1 16730.7 1088.79  18
   4  -9   1 16672.7 1189.52  19
   4  -9   1 17000.9 1261.96   3
  -4   9  -1 15434.0 998.715   1
   4  -9   2 6128.59 676.838  17
  -4  -9  -2 6157.19 368.685   7
  -4   9  -2 6456.94 382.231  13
  -4  -9  -2 6150.23 681.481  19
   4  -9   2 5655.39 667.409  19
   4  -9   2 6140.11 373.420  20
  -4   9  -2 6060.87 386.129   5
   4   9   2 6409.86 694.374  18
   4  -9   2 5307.51 689.688   3
  -4   9  -2 5859.94 643.281   1
   4  -9   3 25134.7 1407.94  17
  -4  -9  -3 26605.2 751.420   7
  -4   9  -3 27249.2 764.145  13
  -4  -9  -3 24984.4 1374.10  19
   4  -9   3 25774.8 752.788  20
   4  -9   3 26172.0 1392.55  19
  -4  -9  -3 26709.7 693.314   6
  -4   9  -3 27332.9 808.248   5
   4   9   3 26075.9 1425.13  18
   4  -9   3 25365.9 1487.60   3
  -4   9  -3 25863.0 1396.03   1
   4  -9   4 25119.1 1431.66  17
  -4  -9  -4 25754.3 744.827   7
  -4   9  -4 24239.8 716.210  13
  -4  -9  -4 25633.1 1413.78  19
   4  -9   4 24781.1 735.876  20
  -4   9  -4 24717.3 774.935   5
  -4  -9  -4 25500.1 707.504   6
   4   9   4 25807.4 1451.76  18
   4  -9   4 26623.7 1494.25   3
  -4   9  -4 24445.8 1407.51   1
   4  -9   5 116457. 3138.73  17
  -4  -9  -5 124783. 1670.92   7
  -4   9  -5 123250. 1597.93  13
  -4  -9  -5 126776. 3199.64  19
   4  -9   5 121152. 1613.18  20
  -4   9  -5 118892. 1721.19   5
  -4  -9  -5 119141. 1584.83   6
   4   9   5 121098. 3237.60  18
  -4   9  -5 117151. 3186.44   1
  -4  -9  -6 13091.5 565.370   7
  -4   9  -6 13774.9 534.765  13
   4  -9   6 13251.6 533.574  20
  -4  -9  -6 13733.6 566.456   6
  -4   9  -6 12408.1 574.329   5
   4  -9   6 12632.3 1055.99  17
   4   9   6 13613.3 1122.52  18
  -4   9  -6 12100.1 1399.72   4
   4  -9   6 13106.2 1014.56   3
  -4   9  -6 13989.7 1158.65   1
  -4   9  -7 606.331 303.966   1
   4  -9   7 1119.77 158.054  20
  -4  -9  -7 565.661 137.084   6
  -4   9  -7 454.823 142.870   5
   4  -9   7 89.3290 202.816  17
  -4  -9  -7 764.433 161.646   7
  -4   9  -7 325.369 95.5767  13
  -4   9  -7 404.058 115.857   9
   4   9   7 415.868 226.025  18
  -4  -9  -8 52709.0 1178.27   7
  -4   9  -8 53147.2 1064.05  12
  -4   9  -8 51852.2 1033.21  13
  -4   9  -8 54040.0 1276.67   5
  -4  -9  -8 53293.6 1171.46   6
   4  -9   8 51867.6 1006.31  20
  -4   9  -8 55030.6 1141.84   9
  -4  -9  -9 32259.5 941.845   7
  -4   9  -9 33031.1 1045.23   5
  -4  -9  -9 33238.9 947.872   6
  -4   9  -9 31778.5 794.521  12
   4  -9   9 32725.9 769.590  20
  -4   9  -9 34465.2 890.401   9
  -4   9 -10 11082.8 459.213  12
  -4   9 -10 10765.8 631.514   5
  -4  -9 -10 10961.0 559.541   6
  -4  -9 -10 10871.3 565.701   7
  -4   9 -10 10695.4 499.139   9
  -4   9 -11 52112.8 913.613  12
  -4   9 -11 51164.8 1403.31   5
  -4  -9 -11 53944.3 1266.88   7
  -4  -9 -11 53010.3 1241.37   6
  -4   9 -11 53023.2 1088.93   9
  -4   9 -12 449.157 106.496  12
  -4  -9 -12 327.443 141.980   7
  -4  -9 -12 691.703 170.910   6
  -4   9 -12 448.038 135.682   9
  -4  -9 -13 1415.41 224.249   7
  -4  -9 -13 1222.54 209.558   6
  -4   9 -13 1595.60 207.695   9
  -4   9 -14 4684.18 292.312   9
  -4  -9 -14 4960.53 358.625   6
  -4  -9 -14 4391.78 340.212   7
  -4  -9 -15 19140.9 443.577   7
   4  10 -14 11702.7 291.949  13
   4  10 -14 11818.3 288.381   9
   4 -10 -14 12542.3 366.384   6
  -4  10  14 11701.0 347.787   5
   4  10 -13 1025.32 115.484   9
  -4  10  13 1128.18 143.248   5
   4 -10 -13 970.131 150.508   6
   4  10 -13 1064.24 117.530  13
   4  10 -12 42598.9 770.794   9
   4  10 -12 42516.0 802.438  13
   4 -10 -12 44476.1 1045.24   6
  -4  10  12 42276.8 916.171   5
   4  10 -11 13010.9 492.710   9
  -4 -10  11 13573.3 540.220  20
   4  10 -11 13630.8 539.739  13
   4  10 -10 3549.09 310.856   9
   4  10 -10 3739.28 350.970  13
  -4  10  10 3433.19 479.391  13
  -4 -10  10 4001.17 380.123  20
   4  10  -9 149.819 139.599   9
  -4  10   9-58.0964 260.172  13
   4  10  -9 156.346 153.979  13
  -4 -10   9 17.6687 159.897  20
   4  10  -9 109.743 133.134   5
   4  10  -8 93141.4 1734.55   9
   4  10  -8 94084.0 1567.52   5
   4  10  -8 93274.9 1761.70  13
  -4 -10   8 91332.5 1791.65  20
  -4  10   7 2585.92 445.293   5
  -4  10   7 3322.41 424.231  13
   4  10  -7 3025.04 315.239  13
  -4 -10   7 2818.67 317.013  20
  -4 -10   6 52552.1 1245.74  20
  -4  10   6 55542.5 1517.88  13
   4  10  -6 53944.9 1199.45  13
   4 -10  -5 58296.9 3066.92  19
   4  10  -5 52091.2 2741.94  18
  -4  10   5 61832.4 1962.11   5
  -4  10   5 63515.6 4019.94   2
  -4 -10   5 58363.5 1258.49  20
  -4 -10   5 57787.4 2356.51  19
   4 -10  -5 56576.1 1401.67  20
   4  10  -5 58246.5 1185.97  13
  -4  10   5 58254.7 1455.27  13
   4  10  -4 829.937 148.578  13
  -4  10   4 869.528 191.416  13
  -4 -10   4 1160.00 312.545  19
   4  10  -4 1002.25 368.986  18
   4 -10  -4 1199.19 405.468  19
  -4  10   4 1373.26 281.502   5
  -4  10   4 139.454 173.673   2
   4 -10  -4 251.620 219.146   3
  -4 -10   4 931.774 180.126  20
   4  10  -3 49038.9 2165.18  18
   4 -10  -3 51652.7 2564.02  19
  -4  10   3 53623.5 1497.68   5
   4 -10  -3 55234.5 2891.99   3
  -4 -10   3 52718.6 1134.79  20
  -4 -10   3 51504.2 2106.22  19
   4  10  -3 48390.7 1000.43  13
  -4  10   3 51407.8 1246.17  13
   4  10  -2 55727.3 2154.53  18
   4 -10  -2 60235.8 2654.35  19
  -4  10   2 57061.3 1433.61   5
   4 -10  -2 58804.0 2814.67   3
  -4 -10   2 56052.4 1155.58  20
  -4 -10   2 52024.8 2105.17  19
   4  10  -2 56740.9 1050.14  13
  -4  10   2 56001.5 1255.67  13
  -4  10   1 772.884 166.057  13
   4  10  -1 674.148 127.899  13
   4  10  -1 774.435 273.841  18
  -4 -10   1 786.380 283.894  19
   4 -10  -1 860.720 349.406  19
  -4  10   1 544.180 161.799   5
  -4  10   1 870.098 255.651   1
   4 -10  -1 593.999 143.202  20
  -4 -10   1 647.443 144.719  20
   4 -10  -1 151.330 246.795   3
  -4  10   0 118450. 1736.75  13
   4  10   0 122525. 3090.54  18
  -4  10   0 108631. 1796.69   5
  -4  10   0 111469. 2727.21   1
   4 -10   0 107446. 3296.76  19
  -4 -10   0 118274. 1667.02  20
  -4 -10   0 113795. 3068.92  19
   4 -10   0 113354. 1692.92  20
   4 -10   0 120317. 3660.34   3
  -4  10  -1 681.141 141.356  13
   4  10   1 380.123 190.323  18
  -4 -10  -1 808.273 281.084  19
   4 -10   1 840.738 302.027  19
  -4  10  -1 539.472 142.249   5
  -4  10  -1 880.172 268.236   1
   4 -10   1 1201.34 195.213  20
   4 -10   1 1065.06 351.246   3
  -4  10  -2 1338.33 188.037  13
   4  10   2 1613.73 377.816  18
  -4 -10  -2 1708.64 393.362  19
   4 -10   2 1897.07 426.590  19
  -4  10  -2 2125.68 245.998   5
   4 -10   2 1990.32 484.711   3
   4 -10   2 1467.81 196.375  20
  -4  10  -2 1169.61 293.232   1
   4 -10   3 13329.0 1139.19   3
  -4  10  -3 13587.9 568.222  13
   4  10   3 13200.5 1072.50  18
  -4 -10  -3 12582.1 485.357   6
  -4 -10  -3 13059.8 562.169   7
  -4  10  -3 13421.5 597.212   5
  -4 -10  -3 13824.0 1100.16  19
   4 -10   3 13753.9 1083.02  19
   4 -10   3 13172.2 566.582  20
  -4  10  -3 13018.1 1041.95   1
   4 -10   4 177979. 4115.38   3
  -4  10  -4 172011. 1983.73  13
   4  10   4 163859. 3817.53  18
  -4 -10  -4 174351. 2042.36   7
  -4 -10  -4 168736. 1845.32   6
  -4  10  -4 169849. 2102.23   5
  -4 -10  -4 167037. 3833.69  19
   4 -10   4 176508. 2024.07  20
  -4  10  -4 170106. 3876.91   1
   4 -10   5 7427.69 839.213   3
  -4 -10  -5 7930.76 448.804   7
  -4  10  -5 8640.47 910.333   1
  -4 -10  -5 8118.28 425.801   6
  -4  10  -5 8102.08 467.906   5
   4  10   5 7472.08 834.955  18
   4 -10   5 8284.55 440.269  20
  -4  10  -5 8251.81 433.245  13
  -4  10  -6 36908.1 891.737  13
  -4 -10  -6 37831.6 934.084   6
  -4  10  -6 37855.5 1017.61   5
   4 -10   6 37253.6 910.146  20
  -4 -10  -6 38557.6 983.582   7
  -4 -10  -7 9106.70 496.500   7
  -4  10  -7 8133.25 430.160  12
  -4  10  -7 8586.69 428.081  13
  -4  10  -7 9382.49 524.338   5
  -4 -10  -7 8284.78 450.359   6
  -4  10  -7 8268.00 458.590   9
   4 -10   7 9363.84 449.775  20
  -4 -10  -8 4889.85 373.797   7
  -4  10  -8 4329.06 303.658  12
  -4  10  -8 4501.13 310.231  13
  -4 -10  -8 4367.91 339.689   6
  -4  10  -8 5405.88 421.569   5
  -4  10  -8 4236.56 327.967   9
   4 -10   8 4443.81 301.708  20
   4 -10   9 8949.35 405.261  20
  -4  10  -9 9898.17 431.172  12
  -4  10  -9 10203.1 481.528   9
  -4 -10  -9 9138.71 514.225   7
  -4  10  -9 9444.89 555.685   5
  -4 -10  -9 8923.15 481.705   6
  -4  10 -10 52675.6 899.285  12
  -4  10 -10 51969.1 1057.73   9
  -4 -10 -10 50983.6 1203.44   7
  -4 -10 -10 52371.1 1165.14   6
  -4  10 -10 49795.5 1293.05   5
  -4  10 -11 11519.7 502.920   9
  -4 -10 -11 11321.3 554.209   6
  -4 -10 -11 11232.6 578.991   7
  -4  10 -11 11045.3 623.430   5
  -4  10 -12 38958.4 892.891   9
  -4 -10 -12 39579.4 1017.59   6
  -4 -10 -12 39430.9 1059.04   7
  -4  10 -13 4743.66 320.830   9
  -4 -10 -13 4965.07 371.863   6
  -4 -10 -13 4671.74 349.665   7
  -4  10 -14 4154.92 209.110   9
  -4 -10 -14 3894.73 241.682   6
  -4 -10 -14 3730.81 202.906   7
   4  11 -13 24372.2 437.017  13
  -4  11  13 24277.6 511.488   5
   4 -11 -13 25898.4 556.232   6
   4  11 -13 24487.6 387.504   9
   4  11 -12 10527.8 353.052  13
  -4  11  12 10918.8 415.307   5
   4 -11 -12 11163.4 460.898   6
   4  11 -12 10854.8 317.795   9
   4  11 -11 41716.0 830.359  13
   4 -11 -11 41875.7 1060.68   6
  -4  11  11 40893.4 929.910   5
   4  11 -11 41117.5 716.389   9
  -4  11  10 23122.7 801.544   5
   4  11 -10 21257.6 722.469  13
  -4  11  10 21339.7 909.825  13
  -4 -11  10 22824.9 765.958  20
   4  11 -10 21115.8 593.666   9
  -4  11   9 17308.0 794.573   5
   4  11  -9 17121.8 794.687  13
  -4 -11   9 16706.0 800.822  20
   4  11  -9 17422.1 616.192   9
  -4  11   8 8731.03 657.348   5
  -4  11   8 10474.7 784.663  13
   4  11  -8 9500.95 567.840  13
  -4 -11   8 9478.55 591.242  20
  -4  11   7 72409.8 2158.33   5
   4  11  -7 81070.1 1560.18  13
  -4  11   7 83541.9 2023.07  13
  -4 -11   7 75661.6 1588.26  20
  -4  11   6 70.9884 227.639   5
  -4  11   6 210.142 171.684  13
   4  11  -6 237.136 125.361  13
  -4 -11   6 189.583 132.843  20
  -4  11   5 9479.90 787.491   5
   4  11  -5 9920.55 506.140  13
  -4  11   5 10028.6 622.692  13
   4 -11  -5 9898.02 605.858  20
  -4 -11   5 10564.1 562.882  20
  -4  11   4 30576.8 1264.67   5
   4  11  -4 28817.8 823.438  13
  -4  11   4 29310.0 1002.28  13
  -4 -11   4 28564.6 898.329  20
   4 -11  -4 28127.3 976.881  20
  -4  11   3 14909.3 819.250   5
  -4  11   3 13589.9 663.536  13
   4  11  -3 13496.5 548.751  13
  -4 -11   3 13954.1 618.069  20
   4 -11  -3 12986.8 642.605  20
  -4  11   2 2996.13 355.057   5
  -4 -11   2 2180.28 260.993  20
   4 -11  -2 2084.83 266.654  20
  -4  11   2 2593.51 297.836  13
   4  11  -2 2540.83 241.089  13
  -4  11   1 103023. 1893.85   5
  -4  11   1 102853. 1711.83  13
   4  11  -1 103480. 1429.29  13
  -4 -11   1 103958. 1649.30  20
   4 -11  -1 105146. 1718.77  20
   4  11  -1 105654. 3076.40  18
  -4  11   0 27294.7 937.849   5
  -4  11   0 26622.5 855.676  13
  -4 -11   0 26610.2 844.620  20
   4 -11   0 26605.3 853.264  20
   4 -11   0 24862.6 1657.48  19
   4  11   0 27305.0 1551.86  18
   4 -11   1 21117.4 1475.13  19
   4 -11   1 20622.0 740.213  20
  -4  11  -1 20509.1 785.902   5
  -4  11  -1 20292.4 732.700  13
   4 -11   2 10379.3 522.477  20
  -4  11  -2 10688.9 559.202   5
  -4  11  -2 10545.6 522.548  13
  -4  11  -3 74308.9 1443.01   5
  -4  11  -3 72461.8 1336.75  13
  -4 -11  -3 76297.5 1178.63   6
   4 -11   3 72652.9 1353.97  20
  -4  11  -4 32068.8 939.472   5
  -4  11  -4 34204.4 900.434  13
  -4 -11  -4 34572.5 821.179   6
   4 -11   4 33205.0 897.087  20
  -4  11  -5 86798.1 1551.24   5
  -4  11  -5 88271.4 1417.17  13
   4 -11   5 88286.8 1427.97  20
  -4 -11  -5 89170.7 1357.47   6
  -4 -11  -6 15466.5 584.892   6
  -4 -11  -6 15099.5 643.451   7
  -4  11  -6 15932.0 591.656  13
  -4  11  -6 16027.2 669.398   5
  -4  11  -6 15782.7 620.078   9
   4 -11   6 15334.5 584.519  20
  -4 -11  -7 4998.44 344.285   6
  -4 -11  -7 4951.64 372.659   7
  -4  11  -7 4728.96 313.577  12
  -4  11  -7 4986.99 326.924  13
  -4  11  -7 4685.06 371.598   5
  -4  11  -7 5158.65 352.311   9
   4 -11   7 5183.68 334.620  20
  -4 -11  -8 28544.5 807.883   6
  -4 -11  -8 30712.1 926.159   7
  -4  11  -8 31331.2 744.044  12
  -4  11  -8 29512.1 778.833  13
  -4  11  -8 31060.7 946.515   5
  -4  11  -8 30654.0 826.256   9
   4 -11   8 29204.6 747.021  20
  -4 -11  -9 10656.6 503.098   6
  -4 -11  -9 11150.2 567.461   7
  -4  11  -9 10892.2 401.350  12
  -4  11  -9 11022.2 575.692   5
  -4  11  -9 11185.3 481.979  13
  -4  11  -9 10923.7 479.537   9
   4 -11   9 10329.3 425.357  20
  -4  11 -10 8986.04 426.804   9
  -4 -11 -10 8617.14 449.888   6
  -4 -11 -10 9286.84 549.000   7
  -4  11 -10 8670.55 520.226   5
  -4  11 -11 80794.9 1231.18   9
  -4 -11 -11 80031.2 1348.75   6
  -4 -11 -11 81101.9 1473.91   7
  -4  11 -11 76102.9 1494.23   5
  -4 -11 -12 11705.9 520.835   6
  -4 -11 -12 11343.8 484.201   7
  -4  11 -12 11926.7 471.225   9
  -4 -11 -13 3822.85 292.277   6
  -4  11 -13 3787.51 257.714   9
  -4  12  12 26386.7 526.681   5
   4 -12 -12 27961.0 577.265   6
   4  12 -12 27672.5 466.862  13
  -4  12  11 7847.14 354.347   5
   4 -12 -11 8562.16 406.357   6
   4  12 -11 8187.93 314.918  13
  -4 -12  10 3972.61 274.619  20
   4 -12 -10 3585.01 332.594   6
  -4  12  10 3577.92 285.935   5
   4  12 -10 3646.43 262.261  13
  -4 -12   9 10634.3 550.246  20
   4 -12  -9 9784.86 630.383   6
  -4  12   9 10309.3 553.109   5
  -4  12   9 10486.5 644.107  13
   4  12  -9 11072.3 544.961  13
  -4 -12   8 43345.0 1213.49  20
   4  12  -8 44988.5 1192.85  13
  -4 -12   7 3706.70 371.968  20
  -4  12   7 3115.15 429.407   5
   4  12  -7 3593.79 345.899  13
  -4  12   7 4340.93 479.455  13
  -4 -12   6 38971.5 1122.56  20
  -4  12   6 45381.4 1809.81   5
   4  12  -6 41083.7 1064.93  13
  -4  12   6 43037.8 1353.50  13
  -4  12   5 46077.5 1682.90   5
  -4  12   5 43102.8 1285.93  13
   4  12  -5 43542.6 1056.61  13
   4 -12  -4 2809.55 330.119  20
  -4 -12   4 2703.00 303.102  20
  -4  12   4 3115.71 425.524   5
  -4  12   4 3068.02 340.033  13
   4  12  -4 3355.84 292.555  13
   4 -12  -3 23491.3 881.140  20
  -4 -12   3 22666.9 816.030  20
  -4  12   3 24777.5 1063.54   5
   4  12  -3 23472.8 732.410  13
  -4  12   3 22745.7 859.820  13
   4 -12  -2 59879.3 1357.22  20
  -4 -12   2 59409.6 1302.38  20
  -4  12   2 63441.1 1600.68   5
  -4  12   2 59160.6 1339.33  13
   4  12  -2 59396.9 1130.27  13
   4 -12  -1 688.201 173.395  20
  -4 -12   1 824.995 172.570  20
  -4  12   1 583.609 150.927   5
   4  12  -1 815.714 153.767  13
  -4  12   1 625.291 159.256  13
   4 -12   0 64260.1 1340.92  20
  -4 -12   0 63992.3 1359.89  20
  -4  12   0 64773.8 1465.98   5
  -4  12   0 65695.9 1348.63  13
   4 -12   1 10218.4 531.861  20
  -4  12  -1 11036.1 594.514   5
  -4  12  -1 10530.5 538.083  13
   4 -12   2 79.1063 115.078  20
  -4  12  -2 96.7265 115.735   5
  -4  12  -2-48.4866 135.066  13
   4 -12   3 54907.0 1165.87  20
  -4  12  -3 56862.0 1271.53   5
  -4  12  -3 53482.6 1146.52  13
  -4  12  -4 74817.8 1439.33   5
  -4  12  -4 73651.4 1312.46  13
   4 -12   4 76338.5 1347.96  20
  -4 -12  -4 73823.8 1144.86   6
  -4  12  -5 193.684 105.652  13
  -4 -12  -5 91.2147 79.7192   6
  -4  12  -5 198.398 115.639   5
  -4  12  -5 220.501 114.893   9
   4 -12   5-19.1947 134.469  20
  -4 -12  -6 19766.2 618.357   6
  -4  12  -6 18709.5 608.968  12
  -4  12  -6 20843.7 661.482  13
  -4  12  -6 21307.1 756.046   5
  -4  12  -6 21459.0 693.513   9
   4 -12   6 20570.8 656.790  20
  -4 -12  -7 8807.02 420.189   6
  -4  12  -7 9111.01 387.147  12
  -4  12  -7 9450.53 509.423   5
  -4  12  -7 9397.90 434.978  13
  -4  12  -7 9543.35 452.864   9
   4 -12   7 8914.19 419.826  20
  -4 -12  -8 2709.65 239.213   6
  -4  12  -8 2427.31 262.920   5
  -4  12  -8 2409.21 221.086  13
  -4  12  -8 2510.44 232.219   9
   4 -12   8 2393.15 212.145  20
  -4 -12  -9 10616.5 456.237   6
  -4  12  -9 11637.0 560.089   5
  -4  12  -9 10691.2 453.969  13
  -4  12  -9 11138.6 452.717   9
   4 -12   9 11324.3 423.158  20
  -4  12 -10 29183.6 705.934   9
  -4 -12 -10 27243.7 726.330   6
  -4  12 -10 27380.9 845.130   5
  -4  12 -11 55.5797 88.3791   9
  -4 -12 -11 176.664 98.2129   6
  -4 -12 -12 34146.3 779.797   6
  -4  12 -12 32644.6 699.961   9
   4  13 -11 17138.7 353.190  13
  -4  13  11 16152.9 388.381   5
   4 -13 -11 17437.3 416.557   6
   4  13 -10 37794.6 647.274  13
  -4  13  10 36521.4 724.766   5
   4 -13 -10 38251.2 788.077   6
  -4  13   9 7831.58 405.633   5
   4 -13  -9 7689.23 438.938   6
   4  13  -9 8274.84 373.530  13
  -4 -13   9 7799.76 371.443  20
  -4  13   8 7808.91 476.192   5
   4 -13  -8 6234.38 478.683   6
  -4  13   8 7284.29 512.646  13
   4  13  -8 7837.84 448.796  13
  -4 -13   8 7621.07 448.552  20
   4 -13  -7 27550.5 1024.37   6
  -4  13   7 30406.9 1086.48   5
   4  13  -7 31733.5 936.010  13
  -4  13   7 33149.4 1234.51  13
  -4 -13   7 29489.9 965.897  20
   4 -13  -6 4836.13 402.299   6
  -4  13   6 4212.15 493.678   5
   4  13  -6 5152.24 378.416  13
  -4  13   6 5699.83 490.202  13
  -4 -13   6 4746.52 401.013  20
  -4  13   5 15800.4 952.795   5
   4  13  -5 15498.7 624.820  13
  -4  13   5 16285.3 777.347  13
  -4 -13   5 14275.7 674.663  20
  -4  13   4 4984.67 522.047   5
   4  13  -4 4822.67 347.501  13
  -4  13   4 4686.57 410.441  13
   4 -13  -4 4937.31 412.336  20
  -4 -13   4 5027.74 404.423  20
  -4  13   3 16190.1 849.569   5
   4  13  -3 15261.5 586.721  13
  -4  13   3 14574.4 678.208  13
   4 -13  -3 14484.7 691.036  20
  -4 -13   3 15257.9 687.303  20
  -4  13   2 1687.29 265.993   5
   4  13  -2 1718.57 206.883  13
  -4  13   2 1447.52 222.193  13
   4 -13  -2 1958.97 262.359  20
  -4 -13   2 1566.48 241.761  20
  -4  13   1 42627.5 1228.92   5
   4  13  -1 41411.9 912.041  13
  -4  13   1 39683.1 1049.27  13
   4 -13  -1 42273.2 1097.32  20
  -4 -13   1 42488.7 1129.35  20
  -4  13   0 4708.55 402.446   5
  -4  13   0 4479.21 358.768  13
   4 -13   0 4557.51 362.857  20
  -4 -13   0 4405.87 376.450  20
  -4  13  -1 29141.5 943.372   5
  -4  13  -1 27442.8 838.422  13
   4 -13   1 29391.6 873.585  20
  -4  13  -2 47990.6 1077.80  13
   4 -13   2 49044.8 1095.10  20
  -4  13  -3 42757.1 1080.19   5
  -4  13  -3 42327.9 984.307  13
   4 -13   3 40124.8 969.941  20
  -4  13  -4 7537.10 451.378   5
  -4  13  -4 7666.68 412.152  13
  -4  13  -4 7220.42 401.693   9
   4 -13   4 7081.72 401.684  20
  -4 -13  -5 34898.3 734.115   6
  -4  13  -5 35131.4 844.083  13
  -4  13  -5 36047.7 955.339   5
  -4  13  -5 35607.6 850.587   9
   4 -13   5 33486.7 827.211  20
  -4 -13  -6 7204.23 341.703   6
  -4  13  -6 7811.56 336.514  12
  -4  13  -6 7649.49 444.369   5
  -4  13  -6 7602.80 387.510  13
  -4  13  -6 7789.23 394.659   9
   4 -13   6 7354.03 379.067  20
  -4 -13  -7 2296.98 203.043   6
  -4  13  -7 2342.88 250.542   5
  -4  13  -7 2236.10 209.495  13
  -4  13  -7 2584.49 225.280   9
   4 -13   7 2191.67 202.789  20
  -4 -13  -8 13774.3 467.290   6
  -4  13  -8 13760.8 575.317   5
  -4  13  -8 13973.0 494.164  13
  -4  13  -8 14486.1 488.181   9
   4 -13   8 13604.3 457.406  20
  -4  13  -9 20878.8 691.065   5
   4 -13   9 20705.4 528.661  20
  -4 -13  -9 19391.9 549.933   6
  -4  13  -9 20448.2 560.935   9
  -4  13 -10 16252.6 484.557   9
  -4 -13 -10 15591.0 487.105   6
  -4  13 -10 15213.9 562.160   5
  -4 -13 -11 14408.5 445.726   6
  -4  13 -11 13008.8 408.437   9
   4  14  -9 13244.1 343.916  13
  -4  14   9 13056.5 387.441   5
   4  14  -8 13672.5 425.565  13
  -4 -14   8 13532.4 436.976  20
  -4  14   8 13925.1 488.475   5
   4 -14  -8 13238.6 446.564   6
  -4  14   7 3205.93 290.011  13
   4  14  -7 3356.91 260.440  13
  -4 -14   7 3389.58 270.865  20
  -4  14   7 3081.01 284.102   5
   4  14  -6 26219.8 792.803  13
  -4  14   6 28392.8 1032.03  13
  -4 -14   6 26401.0 835.672  20
  -4  14   6 25000.4 915.992   5
  -4  14   5 24931.2 926.836  13
   4  14  -5 22886.7 727.192  13
  -4 -14   5 22376.7 806.081  20
  -4  14   5 24571.7 1087.76   5
  -4  14   4 1712.73 247.196  13
   4  14  -4 1257.07 179.216  13
  -4 -14   4 1414.17 221.792  20
  -4  14   4 1416.10 275.335   5
   4  14  -3 12733.0 521.526  13
  -4  14   3 12842.6 617.544  13
   4 -14  -3 13207.8 630.385  20
  -4 -14   3 12792.9 614.784  20
  -4  14   3 14839.8 768.066   5
   4  14  -2 46007.9 956.275  13
  -4  14   2 46414.5 1113.83  13
   4 -14  -2 45406.2 1133.18  20
  -4  14   2 49034.8 1323.96   5
   4  14  -1 3355.40 260.832  13
  -4  14   1 3272.80 300.755  13
   4 -14  -1 3103.48 300.098  20
  -4 -14   1 3056.53 317.063  20
  -4  14   1 3094.91 337.475   5
  -4  14   0 62607.9 1223.16  13
   4 -14   0 61122.9 1234.15  20
  -4  14  -1 19647.9 673.220  13
   4 -14   1 19597.2 684.013  20
  -4  14  -1 20303.0 755.425   5
  -4  14  -2 1103.33 171.841  13
  -4  14  -2 1144.32 161.232   9
   4 -14   2 1303.39 187.587  20
  -4  14  -2 1212.99 202.248   5
  -4  14  -3 13816.2 531.852  13
  -4  14  -3 14157.2 595.474   5
  -4  14  -3 13870.8 508.554   9
   4 -14   3 14302.2 546.068  20
  -4  14  -4 21862.3 567.152  12
   4 -14   4 22130.6 651.641  20
  -4  14  -4 22007.8 623.460   9
  -4  14  -4 22379.8 725.785   5
  -4  14  -4 21502.0 639.013  13
   4 -14   5 494.741 116.551  20
  -4  14  -5 627.365 123.320   9
  -4  14  -5 631.904 146.478   5
  -4  14  -5 506.356 117.661  13
  -4  14  -6 21900.1 603.402  13
  -4 -14  -6 21485.5 491.559   6
  -4  14  -6 23075.0 706.180   5
  -4  14  -6 22062.3 579.499   9
   4 -14   6 20607.9 575.844  20
  -4  14  -7 3824.73 251.693  13
  -4 -14  -7 3628.27 209.540   6
  -4  14  -7 3718.16 287.327   5
  -4  14  -7 3958.01 242.666   9
   4 -14   7 4063.12 249.311  20
  -4  14  -8 4239.48 250.203  13
  -4 -14  -8 4434.74 224.850   6
  -4  14  -8 4865.68 257.514   9
  -4  14  -8 4059.34 288.025   5
   4 -14   8 4793.98 251.632  20
  -4  14  -9 11991.0 450.032   5
  -4  14  -9 12551.3 387.565   9
  -4  15   7 21121.9 487.947   5
   4  15  -7 20766.9 402.805  13
  -4  15   6 2671.28 218.934   5
  -4  15   6 2411.35 182.307  13
   4  15  -6 2773.52 180.856  13
  -4 -15   6 2813.25 189.154  20
  -4  15   5 15249.7 604.699   5
   4  15  -5 16595.2 496.342  13
  -4  15   5 16851.3 669.473  13
  -4 -15   5 16769.4 497.415  20
  -4  15   4 19006.8 802.598   5
  -4  15   4 18895.9 722.330  13
   4  15  -4 18301.2 587.147  13
  -4 -15   4 18382.7 554.271  20
  -4  15   3 5982.64 450.764   5
   4  15  -3 5269.25 314.994  13
  -4  15   3 6339.96 409.001  13
  -4 -15   3 5391.86 314.536  20
  -4  15   2 1845.66 256.111   5
   4  15  -2 1708.86 176.693  13
  -4  15   2 1761.82 218.361  13
  -4 -15   2 2217.27 204.710  20
   4 -15  -2 1218.51 185.484  20
  -4  15   1 34880.5 984.242   5
  -4  15   1 33136.6 853.917  13
  -4  15   0 4814.55 361.254   5
  -4  15   0 4219.33 268.455   9
  -4  15   0 4404.48 308.263  13
   4 -15   0 4615.67 330.991  20
  -4  15  -1 453.631 134.588   5
  -4  15  -1 419.878 103.001   9
  -4  15  -1 373.474 112.440  13
   4 -15   1 524.046 129.563  20
  -4  15  -2 29863.6 818.432   5
  -4  15  -2 27373.5 634.811   9
  -4  15  -2 27412.2 708.068  13
   4 -15   2 27850.7 728.377  20
  -4  15  -3 10248.5 469.007   5
  -4  15  -3 10531.5 385.910   9
  -4  15  -3 9865.69 413.129  13
   4 -15   3 10635.3 435.761  20
  -4  15  -4 9081.28 429.333   5
  -4  15  -4 9130.95 348.278   9
  -4  15  -4 9007.50 382.161  13
   4 -15   4 8702.98 378.603  20
  -4  15  -5 33427.7 794.649   5
  -4  15  -5 34516.6 647.036   9
  -4  15  -5 34070.7 711.203  13
   4 -15   5 34495.8 707.557  20
  -4  15  -6 4724.05 293.702   5
  -4  15  -6 4525.13 231.384   9
   4 -15   6 4707.38 253.576  20
  -4  15  -6 4373.46 249.770  13
  -4  15  -7 8513.16 364.940   5
  -4  16   4 309.836 72.4459   5
  -4  16   3 13950.8 471.732   5
  -4  16   3 14740.6 487.963  13
  -4  16   2 18606.9 629.781   5
  -4  16   2 17310.6 571.674  13
  -4  16   1 116.758 88.9347   5
  -4  16   1 158.789 98.8537  13
  -4  16   0 15162.6 544.495   5
  -4  16   0 14524.9 500.851  13
   4 -16   1 11314.2 436.319  20
  -4  16  -1 12518.5 481.118   5
  -4  16  -1 12640.9 452.347  13
   4 -16   2 113.513 73.7179  20
  -4  16  -2 100.368 72.9915   5
  -4  16  -2 0.74392 61.2728  13
   4 -16   3 10540.0 392.826  20
  -4  16  -3 11024.2 418.595   5
  -4  16  -3 11335.1 394.624  13
   5   0 -18-81.5396 62.4279  10
   5   0 -18-18.4292 49.8019   7
   5   0 -17 58843.6 906.286  10
   5   0 -17 58317.2 787.425   9
   5   0 -17 59474.0 861.843   7
   5   0 -16 1.73443 74.5682   9
   5   0 -16 75.8002 89.6149   7
   5   0 -16 98.2880 82.8437  10
   5   0 -15 49676.1 895.377  13
   5   0 -15 49794.5 1092.50  10
   5   0 -14-49.9889 139.299  10
   5   0 -14-78.0331 111.617   9
   5   0 -14 72.8602 65.8341  13
   5   0 -13 562.424 149.520  10
   5   0 -13 401.324 97.4458  13
   5   0 -13 525.201 118.027   9
   5   0 -12-16.3126 94.4028  10
  -5   0  12-2.89351 159.089   2
  -5   0  12-262.263 201.601  17
   5   0 -12 23.9296 90.3858   9
   5   0 -12 48.1708 70.9532  13
   5   0 -11 173437. 1793.03   9
  -5   0  11 182301. 3403.44   2
   5   0 -11 173686. 1829.49  13
   5   0 -11 163805. 3879.24  16
  -5   0  11 190813. 3833.65  17
   5   0 -10-30.0075 92.7979  13
  -5   0  10 53.0877 170.916  17
   5   0 -10 254.825 197.515  16
   5   0 -10-5.23112 77.6844   9
  -5   0   9 54635.0 1946.59  17
  -5   0   9 57633.0 1742.67   2
   5   0  -8-8.63076 138.891  18
  -5   0   8-66.5402 167.010  17
  -5   0   8 51.1697 90.1577   2
   5   0  -7 20020.2 1104.33  18
  -5   0   7 19270.5 1032.28  17
   5   0  -7 19324.2 816.618   3
  -5   0   7 19066.8 893.205   2
   5   0  -6 76.4356 141.866  18
   5   0  -6 90.1795 90.1253   3
  -5   0   6 90.5829 136.952  17
  -5   0   6 162.078 119.297   2
   5   0  -5 999999. 6849.99  18
  -5   0   5 980830. 6949.62  17
  -5   0   5 986907. 5762.40   2
   5   0  -4-21.9694 126.480  18
  -5   0   4-41.4957 151.926  17
  -5   0   4-14.9455 127.557   1
  -5   0   4 109.015 100.219   2
  -5   0   3 414696. 5132.85  17
  -5   0   3 425577. 2111.15   4
  -5   0   3 421416. 4152.81   1
   5   0  -2 342.855 162.226  18
  -5   0   2 26.5264 43.6765   4
  -5   0   2-2.86399 142.632   1
  -5   0   2-12.5763 110.360   2
   5   0  -1 2615.68 367.814  18
  -5   0   1 3274.73 319.676   2
  -5   0   1 2967.27 279.304   4
  -5   0   1 3108.41 483.945   1
  -5   0   0 81.5810 89.6833   4
  -5   0   0-46.7563 181.519   1
   5   0   1 122440. 2120.98  18
  -5   0  -1 129565. 2671.01   1
   5   0   2-15.1327 75.5262  18
   5   0   2-22.8722 238.888   3
  -5   0  -2 69.5268 155.477   4
  -5   0  -2-15.7450 131.872   1
   5   0   3 52821.2 1032.94  18
   5   0   3 57322.3 1829.96   3
  -5   0  -3 51465.4 2302.75   4
  -5   0  -3 59595.9 1777.58   1
   5   0   4 99.5923 55.0251  18
   5   0   4-111.188 111.513   3
  -5   0  -4-168.875 203.788   4
  -5   0  -4 23.2354 154.708   1
  -5   0  -5 17722.4 1345.40   4
   5   0   5 17079.1 792.413   3
  -5   0  -5 16346.9 862.329  16
  -5   0  -5 18930.5 1118.94   1
  -5   0  -6-106.899 305.453   4
   5   0   6 49.8118 85.4549   3
  -5   0  -6 27.2042 123.034  16
  -5   0  -6 350.021 201.144   1
  -5   0  -7 407692. 6384.07   4
  -5   0  -7 411606. 4889.70  16
   5   0   7 413709. 4427.03  17
  -5   0  -7 397816. 6486.29   1
   5   0   8 415.122 162.648  17
  -5   0  -8 24.9541 134.071  16
  -5   0  -8 94.2009 281.709   4
   5   0   9 31084.0 1351.17  17
  -5   0  -9 32377.7 1836.77   4
  -5   0  -9 31297.5 1568.72  16
  -5   0 -10 116.655 93.9900  15
  -5   0 -10 45.4994 74.9650  14
  -5   0 -10 84.5946 89.7316   7
  -5   0 -10-1.36636 65.9525  11
  -5   0 -10 62.9089 122.186  12
  -5   0 -10 53.3802 82.4922  10
  -5   0 -10 396.678 223.848   4
  -5   0 -10 77.1371 174.779  16
  -5   0 -11 19012.8 632.757  14
  -5   0 -11 18398.6 650.193   7
  -5   0 -11 19281.6 648.135  11
  -5   0 -11 18590.6 730.139  12
  -5   0 -11 18599.8 688.558  10
   5   0  11 19650.6 1874.42   2
  -5   0 -11 18707.7 1433.99   4
  -5   0 -11 18418.2 646.809  15
  -5   0 -11 18692.5 1415.50  16
  -5   0 -12 13.8611 111.674  10
  -5   0 -12 101.365 106.164   7
  -5   0 -12-35.9942 117.025  15
  -5   0 -12 43.9645 93.6398  11
  -5   0 -12-170.021 175.106  12
  -5   0 -13 136639. 2007.89  10
  -5   0 -13 137831. 1868.29   7
  -5   0 -13 141009. 2115.39  12
  -5   0 -14-30.7010 135.153  10
  -5   0 -14 49.7424 113.358   7
  -5   0 -14 173.789 127.076  15
  -5   0 -14-106.294 208.009  12
  -5   0 -15 43596.3 1154.68  10
  -5   0 -15 42819.5 1033.48   7
  -5   0 -15 44846.4 962.530  15
  -5   0 -15 45675.6 1166.46  12
  -5   0 -16 108.872 87.8902   7
  -5   0 -16-67.2765 125.221  10
  -5   0 -16 306.107 206.245  12
  -5   0 -17 3392.80 252.669   7
  -5   0 -17 3154.48 305.738  10
   5  -1 -18 3709.75 160.518   7
   5   1 -18 3789.35 176.754   7
   5   1 -18 3380.25 164.836  10
   5  -1 -18 3399.73 177.176  10
   5   1 -18 3512.12 154.688   9
   5  -1 -17 2649.80 182.523   7
   5   1 -17 2771.70 198.541   7
   5   1 -17 2663.72 174.997   9
   5   1 -17 2348.46 184.402  10
   5  -1 -17 2866.05 213.054  10
   5  -1 -17 2563.06 170.245   9
   5  -1 -16 78141.4 1038.20   9
   5   1 -16 78832.9 1034.71   9
   5   1 -16 75013.5 1174.32  10
   5  -1 -16 74239.0 1197.26  10
   5  -1 -16 78820.3 1122.76   7
   5   1 -16 83416.8 1193.36   7
   5   1 -16 73824.4 941.738  13
   5  -1 -15 11144.8 437.206   9
   5   1 -15 10724.4 503.687  10
   5  -1 -15 10964.2 515.853  10
   5   1 -15 10744.8 420.663   9
   5  -1 -15 10757.1 465.569   7
   5   1 -15 10537.6 407.907  13
   5  -1 -15 10618.8 417.869  13
   5   1 -14 7646.04 459.631  10
   5  -1 -14 7763.91 385.701   9
   5  -1 -14 7045.23 453.912  10
   5   1 -14 7848.92 381.270   9
   5   1 -14 7940.58 380.821  13
   5  -1 -14 7577.92 386.048  13
   5   1 -13 2364.70 220.653   9
   5  -1 -13 2073.05 208.752   9
   5   1 -13 1835.72 240.476  10
   5  -1 -13 2064.85 264.976  10
   5   1 -13 2282.81 214.488  13
   5  -1 -13 2231.02 223.664  13
  -5  -1  12 54311.4 1903.82   2
  -5   1  12 48409.1 1858.71   2
   5  -1 -12 48118.5 2197.43  16
  -5   1  12 54027.8 2090.61  17
  -5  -1  12 55077.1 2152.69  17
   5  -1 -12 52098.2 1048.48  13
   5   1 -12 54135.9 1017.34  13
   5   1 -12 53793.7 1012.11   9
   5  -1 -12 53104.0 1284.34  10
   5  -1 -12 52905.6 1020.17   9
   5   1 -12 53483.5 1274.26  10
   5  -1 -11 258.192 80.2879   9
   5   1 -11 138.161 80.9361   9
  -5   1  11 378.340 209.522  17
  -5  -1  11-3.42794 151.591  17
   5  -1 -11 181.586 145.214  16
  -5   1  11 30.3024 102.124   2
  -5  -1  11-52.5224 91.9712   2
   5  -1 -11 309.192 96.0144  13
   5   1 -11 88.8543 75.0930  13
  -5   1  10 185859. 3371.86   2
  -5  -1  10 184516. 3306.76   2
  -5   1  10 178233. 3587.86  17
  -5  -1  10 195074. 3875.58  17
   5  -1 -10 179615. 1888.77  13
   5   1 -10 176866. 1784.77  13
   5  -1 -10 168473. 3994.03  16
   5  -1 -10 176424. 1780.51   9
   5   1 -10 174025. 1772.34   9
  -5   1   9 214.276 140.568   2
  -5  -1   9 534.905 186.518   2
   5   1  -9 116.249 148.715  18
  -5   1   9 102.328 138.252  17
   5  -1  -9-41.3851 215.706  16
  -5  -1   9 222.855 138.975  17
  -5   1   8 78517.1 1982.60   2
  -5  -1   8 73478.2 1849.03   2
   5   1  -8 67249.4 2063.87  18
  -5   1   8 76230.9 2132.88  17
  -5  -1   8 72047.1 2164.95  17
   5   1  -8 68063.0 2172.57  16
   5  -1  -7 1571.51 364.695  18
   5   1  -7 1586.00 311.303  18
  -5  -1   7 1612.26 267.888   2
  -5   1   7 1331.44 256.484   2
  -5   1   7 1252.72 280.860  17
  -5  -1   7 1194.09 285.027  17
   5   1  -7 1318.55 222.336   3
   5  -1  -7 1688.86 275.441   3
   5  -1  -6 23728.3 964.882   3
  -5   1   6 22137.1 964.027   2
  -5  -1   6 23990.4 914.651   2
   5  -1  -6 23564.2 1205.11  18
   5   1  -6 22227.9 1062.87  18
  -5   1   6 21738.6 1090.18  17
  -5  -1   6 22707.7 1107.14  17
   5  -1  -5 15730.9 795.415   3
   5  -1  -5 15988.3 936.656  18
   5   1  -5 16305.0 890.359  18
  -5   1   5 14334.7 889.615  17
  -5  -1   5 17166.5 915.611  17
  -5  -1   5 16575.6 700.325   2
  -5   1   5 17289.7 785.780   1
  -5   1   5 16398.5 820.679   2
  -5  -1   4 676512. 4209.21   2
  -5   1   4 665642. 5212.97   1
  -5   1   4 648296. 5241.24   2
   5  -1  -4 660437. 5214.32   3
   5  -1  -4 644917. 5570.33  18
   5   1  -4 683384. 5771.45  18
  -5   1   4 624608. 6270.73  17
  -5  -1   4 696917. 5685.27  17
  -5  -1   4 686961. 5808.14  19
  -5   1   3 31428.4 1296.89   1
  -5   1   3 31163.1 1296.68   2
  -5  -1   3 29778.4 912.018   2
   5  -1  -3 30828.7 1158.19   3
  -5  -1   3 30619.2 1249.51  19
   5  -1  -3 29112.6 1127.95  18
   5   1  -3 28276.9 1267.69  18
  -5  -1   3 30867.2 1264.07  17
   5  -1  -2 1450.89 251.919  18
   5   1  -2 1232.62 306.324  18
  -5  -1   2 876.649 247.120  19
   5  -1  -2 1116.35 271.159   3
  -5   1   2 1490.79 193.433   4
  -5  -1   2 1829.59 166.274   4
  -5  -1   2 1539.88 394.221  17
  -5   1   2 1751.53 347.003   2
  -5  -1   2 1435.63 227.847   2
  -5   1   2 1166.16 289.316   1
  -5  -1   2 2475.81 337.346   1
  -5  -1   1 5830.40 520.363   1
  -5   1   1 5897.13 547.785   1
  -5   1   1 6626.97 439.688   4
  -5  -1   1 6330.40 330.651   2
  -5  -1   1 5918.06 372.322   4
   5  -1  -1 5786.90 595.853   3
  -5   1   1 5785.95 489.099   2
   5  -1  -1 6173.07 472.094  18
   5   1  -1 5532.30 524.778  18
  -5  -1   1 6399.66 605.158  19
  -5  -1   0 138327. 2715.23   1
  -5   1   0 142579. 2479.66   1
  -5   1   0 139835. 2288.67   4
   5  -1   0 147243. 3519.81   3
  -5  -1   0 141318. 2151.25   4
   5  -1   0 137700. 2116.34  18
   5   1   0 143076. 2188.39  18
  -5  -1   0 144865. 2850.44  19
  -5  -1  -1 10977.5 860.919   1
  -5   1  -1 11250.6 678.256   1
  -5   1  -1 13422.1 830.822   4
   5  -1   1 11512.9 906.121   3
  -5  -1  -1 11585.7 740.108   4
   5  -1   1 11030.9 583.943  18
   5   1   1 11021.2 543.015  18
  -5  -1  -1 12309.3 840.361  19
  -5  -1  -2 205551. 4122.34   1
  -5   1  -2 193153. 2745.76   1
  -5   1  -2 199315. 3817.83   4
   5  -1   2 197991. 3345.66   3
  -5  -1  -2 212065. 3832.33   4
   5  -1   2 190820. 2239.11  18
   5   1   2 192110. 2105.27  18
  -5  -1  -2 182352. 3173.08  19
  -5  -1  -3 24363.0 1501.89   1
  -5   1  -3 24798.7 1007.70   1
  -5   1  -3 23777.3 1645.67   4
   5  -1   3 26274.2 1093.10   3
  -5  -1  -3 22525.8 1507.08   4
  -5  -1  -3 21822.1 1178.19  19
   5   1   3 24320.4 719.962  18
  -5   1  -4 32696.4 1876.63   4
   5  -1   4 30392.2 1081.29   3
  -5  -1  -4 30427.6 1750.87   4
   5   1   4 30491.8 822.497  18
  -5  -1  -4 30429.8 1097.39  16
  -5  -1  -4 33194.4 1830.29   1
  -5   1  -4 31733.9 1177.75   1
  -5   1  -5 38936.0 2016.71   4
   5  -1   5 36932.8 1137.53   3
   5   1   5 36993.5 1272.38   3
  -5  -1  -5 37194.1 1947.87   4
   5   1   5 38692.4 949.421  18
  -5  -1  -5 37272.4 1303.99  16
  -5  -1  -5 41576.5 2283.54   1
  -5   1  -5 38795.9 1379.33   1
  -5   1  -6 329580. 5801.83   4
   5  -1   6 319324. 3199.80   3
   5   1   6 322606. 3234.13   3
  -5  -1  -6 321045. 5729.07   4
   5   1   6 331004. 3560.25  17
  -5  -1  -6 322618. 4088.20  16
  -5   1  -6 314827. 4026.01  16
  -5  -1  -6 327371. 6842.78   1
  -5   1  -6 333446. 4368.79   1
  -5  -1  -7 12646.3 1150.54   4
  -5   1  -7 11660.3 1094.68   4
  -5  -1  -7 11305.1 829.957  16
   5   1   7 11427.3 699.681  17
   5  -1   7 11725.7 786.163  17
  -5   1  -7 11693.9 828.422  16
  -5   1  -7 12557.4 954.299   1
  -5   1  -8 416918. 6468.45   4
  -5  -1  -8 414561. 6642.41   4
   5   1   8 426526. 4476.01  17
   5   1   8 384490. 7563.69   2
  -5  -1  -8 410018. 5353.63  16
  -5   1  -8 400647. 5212.94  16
   5  -1   8 403065. 4861.77  17
   5   1   9 109.812 178.883   2
  -5  -1  -9 125.324 119.099   4
  -5   1  -9 147.053 148.231   4
   5  -1   9 403.811 180.321  17
  -5  -1  -9 234.304 168.395  16
  -5   1  -9 512.102 214.508  16
  -5  -1 -10 23063.9 718.604  15
  -5   1 -10 24570.2 713.859  15
  -5  -1 -10 22135.4 1423.33  16
  -5   1 -10 22489.0 1440.82  16
  -5  -1 -10 23733.5 678.567  14
  -5   1 -10 24232.6 704.467  14
  -5  -1 -10 23351.7 712.115   7
  -5   1 -10 22767.4 683.276  11
  -5   1 -10 23121.5 754.703  12
  -5  -1 -10 23351.4 693.018  11
  -5  -1 -10 23575.7 829.894  12
  -5   1 -10 23474.7 735.216  10
  -5  -1 -10 23982.6 749.525  10
   5   1  10 25157.5 2246.11   2
  -5  -1 -10 22963.5 1608.92   4
  -5   1 -10 23035.5 1559.05   4
   5  -1  10 22488.9 1256.38  17
  -5   1 -11 167.359 103.016  15
  -5  -1 -11 286.208 89.4033  14
  -5  -1 -11 174.279 118.636  15
  -5  -1 -11 36.0352 122.350   7
  -5   1 -11 175.130 86.4038   7
  -5   1 -11 61.3796 127.453  12
  -5  -1 -11 779.501 146.901  11
  -5   1 -11 340.224 113.641  11
  -5  -1 -11 148.799 134.103  12
  -5   1 -11 193.079 92.0503  10
  -5  -1 -11 405.006 125.020  10
   5  -1  11-925.212 383.332   2
  -5  -1 -11-38.5789 161.030  16
  -5   1 -11 859.926 320.262  16
  -5  -1 -11 275.878 194.241   4
  -5   1 -11 900.490 306.078   4
  -5   1 -12 35568.8 991.055  10
  -5  -1 -12 35030.4 984.440  10
  -5  -1 -12 35739.8 950.884  15
  -5   1 -12 35346.5 895.759  15
  -5  -1 -12 36828.1 967.357   7
  -5   1 -12 35485.3 902.276   7
  -5  -1 -12 34887.9 899.870  11
  -5  -1 -12 35769.9 1107.71  12
  -5   1 -12 35426.4 1008.85  12
  -5   1 -12 35260.6 901.362  11
  -5  -1 -13-64.5775 232.495  12
  -5   1 -13-100.054 177.405  12
  -5   1 -13-72.9446 136.502  10
  -5  -1 -13 8.08008 111.734  10
  -5  -1 -13 8.68077 131.314   7
  -5   1 -13 122.840 87.3716   7
  -5  -1 -13 26.4290 121.592  15
  -5   1 -13-42.5845 124.831  15
  -5   1 -14 44727.9 1157.35  10
  -5  -1 -14 43083.1 1136.44  10
  -5  -1 -14 45183.3 1030.77  15
  -5   1 -14 41489.4 933.840  15
  -5   1 -14 45513.6 1154.25  12
  -5  -1 -14 43871.3 1235.56  12
  -5  -1 -14 42574.2 1080.97   7
  -5   1 -14 42596.9 1018.05   7
  -5   1 -15 1612.85 240.838  10
  -5  -1 -15 1278.33 209.872  10
  -5   1 -15 1239.73 199.276  12
  -5  -1 -15 1823.52 299.688  12
  -5   1 -15 1436.74 194.068   7
  -5  -1 -15 1370.34 216.989   7
  -5   1 -16 2876.02 296.541  12
  -5  -1 -16 2786.44 269.163   7
  -5   1 -16 2925.86 250.996   7
  -5  -1 -16 3176.02 322.044  10
  -5   1 -16 3317.69 324.434  10
  -5  -1 -17 7367.94 457.214  10
  -5   1 -17 7192.75 453.551  10
  -5  -1 -17 6940.28 375.339   7
   5  -2 -18 107.010 45.9204  10
   5   2 -18 129.366 55.1253   7
   5   2 -18 165.151 50.1221   9
   5  -2 -17 54347.0 742.422   7
   5   2 -17 55683.4 837.820   7
   5   2 -17 54191.7 734.449   9
   5   2 -17 51744.5 778.349  10
   5  -2 -17 52964.1 846.824  10
   5   2 -16 1151.27 154.281  10
   5  -2 -16 1569.91 186.461  10
   5   2 -16 1110.76 133.187   9
   5  -2 -16 1375.76 149.136   9
   5  -2 -16 1290.40 148.303   7
   5   2 -16 1212.14 125.699  13
   5  -2 -15 44666.6 864.328   9
   5   2 -15 43774.6 979.516  10
   5  -2 -15 43695.7 1019.74  10
   5   2 -15 46951.8 857.795   9
   5  -2 -15 47696.2 939.543   7
   5   2 -15 44994.6 822.398  13
   5  -2 -14 2473.34 226.860   9
   5   2 -14 2851.21 234.497   9
   5   2 -14 2256.03 252.317  10
   5  -2 -14 2567.00 280.496  10
   5  -2 -14 2628.91 234.600  13
   5   2 -14 2836.04 230.727  13
   5  -2 -14 2405.41 247.219   7
   5   2 -13 960.302 178.239  10
   5  -2 -13 343.611 136.143  10
   5  -2 -13 451.467 113.051   9
   5   2 -13 316.186 102.835   9
   5  -2 -13 595.642 132.090  13
   5   2 -13 753.460 131.098  13
  -5   2  12 9527.72 885.362  17
   5   2 -12 10861.4 462.486   9
   5  -2 -12 11584.7 488.440   9
   5   2 -12 11288.0 594.148  10
   5  -2 -12 11473.1 609.451  10
   5   2 -12 10991.5 461.221  13
   5  -2 -12 11229.5 510.582  13
  -5  -2  11 48227.1 1735.72   2
  -5   2  11 46607.5 1826.01   2
   5   2 -11 46377.2 931.093  13
   5  -2 -11 46504.2 1036.19  13
   5  -2 -11 42767.7 2122.35  16
  -5   2  11 51096.8 1982.96  17
  -5  -2  11 46632.7 2007.38  17
   5  -2 -11 46668.1 968.929   9
   5   2 -11 47282.4 953.581   9
   5  -2 -10 9.35118 119.497  13
   5   2 -10 213.338 81.4838  13
  -5   2  10 288.877 172.770   2
  -5  -2  10 392.102 193.159   2
   5  -2 -10 177.492 86.9108   9
   5   2 -10 293.278 99.1565   9
  -5  -2  10 384.994 215.450  17
  -5   2  10 179.974 155.212  17
   5  -2 -10 359.369 252.871  16
   5   2 -10 260.271 177.157  18
  -5  -2   9 86448.4 2174.42   2
  -5   2   9 87283.9 2276.31   2
   5   2  -9 86850.5 2469.45  18
  -5   2   9 89571.3 2443.90  17
  -5  -2   9 91707.7 2687.47  17
  -5  -2   8 12112.4 762.485   2
  -5   2   8 12255.9 819.486   2
   5   2  -8 10539.5 844.100  16
   5   2  -8 12280.3 876.365  18
  -5   2   8 11971.5 877.398  17
  -5  -2   8 12785.0 959.058  17
   5   2  -7 9647.57 745.711  18
  -5   2   7 8408.33 727.734  17
  -5  -2   7 10741.3 836.787  17
  -5  -2   7 10603.4 660.432   2
  -5   2   7 11015.2 749.082   2
  -5  -2   6 15814.1 736.196   2
  -5   2   6 16165.8 888.869   2
  -5  -2   6 16667.6 966.455  19
   5   2  -6 16538.6 956.564  18
  -5   2   6 17423.4 1040.73  17
  -5  -2   6 16923.0 981.103  17
   5  -2  -6 17171.9 938.318   3
  -5  -2   5 413789. 3372.11   2
  -5   2   5 422031. 4544.66   2
   5   2  -5 412686. 4892.76  18
  -5  -2   5 405068. 4491.73  17
   5  -2  -5 407802. 5547.11  18
   5  -2  -5 401540. 4603.43   3
  -5  -2   4 5269.65 346.881   2
  -5   2   4 6292.30 584.060   1
  -5   2   4 4809.46 520.973   2
  -5  -2   4 4732.62 578.353  19
   5   2  -4 5361.84 628.194  18
  -5  -2   4 4522.47 469.346  17
   5  -2  -4 4529.62 563.058  18
   5  -2  -4 4844.60 524.009   3
  -5   2   3 437924. 5744.42   2
  -5  -2   3 423134. 2898.85   2
  -5   2   3 445692. 5074.12   1
  -5  -2   3 425070. 5888.04  19
   5  -2  -3 411569. 5188.65  18
   5   2  -3 400010. 5433.91  18
  -5  -2   3 430822. 4448.27  17
   5  -2  -3 428346. 5246.25   3
  -5   2   2 23943.4 1038.64   1
  -5   2   2 24010.0 1275.79   2
  -5  -2   2 21195.4 1257.45  19
   5  -2  -2 20580.3 1178.13  18
   5   2  -2 22958.6 1097.81  18
  -5  -2   2 21377.3 1135.14  17
   5  -2  -2 21731.1 1362.90   3
  -5   2   1 19828.4 870.382   1
  -5  -2   1 18647.6 934.829   1
  -5  -2   1 19155.2 1134.83  19
   5  -2  -1 20959.5 1165.57  18
   5   2  -1 19099.0 857.198  18
   5  -2  -1 18696.8 1253.26   3
  -5   2   1 18285.3 943.091   2
  -5  -2   1 19424.8 678.774   4
  -5   2   0 22129.7 893.849   1
  -5  -2   0 22038.5 1064.70   1
  -5  -2   0 22444.6 1189.97  19
   5   2   0 21354.9 815.323  18
   5  -2   0 21930.6 993.809  18
  -5   2   0 23050.2 961.137   2
   5  -2   0 23293.8 1272.64   3
  -5  -2   0 21098.0 845.467   4
  -5   2  -1 187337. 2568.48   1
  -5  -2  -1 181194. 3191.57   1
  -5  -2  -1 178477. 3337.20  19
  -5   2  -1 191979. 3229.84   4
   5  -2   1 199789. 3381.72   3
  -5  -2  -1 190568. 3009.10   4
   5   2   1 187617. 2253.04  18
   5  -2   1 200862. 2194.90  18
  -5  -2  -2 7.68892 125.170   1
  -5   2  -2 58.1076 102.663   1
  -5  -2  -2 278.042 241.857   4
  -5   2  -2 196.251 206.197   4
   5  -2   2 104.242 116.329   3
   5   2   2 79.5779 69.1270  18
  -5  -2  -2 105.422 176.312  19
   5   2   3 201518. 2298.22  18
  -5   2  -3 201930. 2787.15   1
  -5  -2  -3 193499. 3821.71   1
  -5  -2  -3 187386. 3849.72  19
  -5  -2  -3 198573. 2624.39  16
  -5   2  -3 210682. 5089.30   4
   5  -2   3 195836. 2875.38   3
  -5  -2  -3 208734. 4792.81   4
   5   2   4 4501.76 356.750  18
   5   2   4 4103.85 482.769   2
  -5   2  -4 4140.88 410.621   1
  -5  -2  -4 3807.64 622.356   1
  -5  -2  -4 4089.46 560.941  19
  -5   2  -4 4411.22 755.967   4
   5  -2   4 4497.40 423.131   3
  -5  -2  -4 4916.09 758.206   4
  -5  -2  -4 4052.02 413.975  16
   5   2   5 31582.1 981.731  18
  -5   2  -5 29961.6 1830.67   4
  -5  -2  -5 29554.6 1803.56   4
   5  -2   5 31748.4 1073.09   3
  -5  -2  -5 30418.2 1177.73  16
   5   2   5 26148.1 1569.86   2
  -5   2  -5 30497.3 1182.50   1
  -5  -2  -5 28849.4 1688.62   1
   5   2   6 19339.1 807.636  18
   5   2   6 16399.9 1587.94   2
  -5   2  -6 19929.8 1023.14   1
  -5  -2  -6 21442.4 1262.70   1
  -5  -2  -6 18574.0 993.420  16
  -5   2  -6 20407.2 1492.65   4
   5  -2   6 19838.6 831.878   3
  -5  -2  -6 19479.0 1482.32   4
  -5   2  -7 181409. 3362.08   1
  -5  -2  -7 179284. 3316.39  16
   5  -2   7 186057. 3277.93  17
  -5   2  -7 179498. 4337.86   4
  -5  -2  -7 181033. 4491.95   4
  -5   2  -8 7581.18 783.866   1
  -5  -2  -8 6532.53 864.254   4
  -5   2  -8 7944.37 929.088   4
  -5  -2  -8 7101.21 719.434  16
   5  -2   8 7214.91 679.901  17
  -5  -2  -9 24935.6 738.609  15
  -5  -2  -9 23893.2 1395.49  16
  -5  -2  -9 24488.9 864.746  12
  -5   2  -9 23669.6 677.327  11
  -5   2  -9 23895.5 732.131  12
  -5  -2  -9 23249.8 670.030  11
   5  -2   9 22989.6 1262.07  17
  -5   2  -9 25428.7 722.512  10
  -5  -2  -9 24887.0 724.255  10
  -5   2  -9 25411.9 708.888  14
  -5  -2  -9 24900.1 1712.25   4
  -5   2  -9 25359.2 1632.42   4
  -5  -2 -10 72.5159 113.139   7
  -5   2 -10 7.34860 88.1216  11
  -5  -2 -10 32.7802 73.8919  11
  -5  -2 -10 20.0767 142.593  12
  -5   2 -10 145.650 106.596  12
  -5   2 -10-184.095 172.344   4
  -5  -2 -10 139.511 196.034   4
  -5   2 -10 136.558 88.6315  10
  -5  -2 -10 185.959 111.260  10
   5  -2  10 49.7779 164.384  17
  -5  -2 -10 40.1812 193.206  16
  -5  -2 -10 281.867 101.537  15
  -5   2 -10 105.110 102.830  15
  -5   2 -10 70.8843 89.3908  14
  -5  -2 -10 18.1478 95.2960  14
  -5  -2 -11 27964.4 736.727  14
  -5  -2 -11 28668.1 836.125   7
  -5   2 -11 28096.8 784.825  11
  -5   2 -11 29130.3 856.242  12
  -5  -2 -11 28594.4 1017.10  12
  -5  -2 -11 28480.4 791.412  11
   5  -2  11 29140.6 1536.53  17
  -5   2 -11 27143.7 830.737  10
  -5  -2 -11 28206.4 848.860  10
  -5  -2 -11 29997.5 1926.11   4
  -5   2 -11 29509.3 1775.49   4
  -5   2 -11 27274.4 758.306  15
  -5  -2 -11 25747.8 1668.51  16
  -5  -2 -11 29340.9 858.060  15
  -5  -2 -12 14.2969 106.426  10
  -5   2 -12 71.4153 91.5593  10
  -5  -2 -12-33.4902 142.250  15
  -5   2 -12-20.7778 128.381  15
  -5   2 -12 6.23663 94.2053  11
  -5   2 -12 159.415 138.404  12
  -5  -2 -12 154.567 99.6847  11
  -5  -2 -12-156.872 268.620  12
  -5  -2 -12-58.2840 138.987   7
  -5   2 -13 80409.4 1498.32  12
  -5  -2 -13 82778.8 1769.06  12
  -5   2 -13 82895.7 1549.63  10
  -5  -2 -13 81270.7 1542.30  10
  -5   2 -13 82587.3 1312.82  15
  -5  -2 -13 84655.4 1479.94  15
  -5  -2 -13 85227.2 1529.34   7
  -5   2 -14 1473.88 220.358  12
  -5  -2 -14 1483.11 296.915  12
  -5   2 -14 1268.01 167.199  15
  -5   2 -14 1313.77 213.759  10
  -5  -2 -14 1160.88 211.377  10
  -5  -2 -14 1152.53 203.492   7
  -5   2 -15 18454.2 750.303  10
  -5  -2 -15 17735.9 729.429  10
  -5  -2 -15 18017.3 709.579   7
  -5   2 -15 18137.0 556.644  15
  -5  -2 -15 18727.0 829.557  12
  -5   2 -15 18497.7 690.797  12
  -5  -2 -16 2620.04 289.127  10
  -5   2 -16 2375.60 280.581  10
  -5  -2 -16 2370.89 267.707   7
  -5   2 -16 2003.93 243.257  12
  -5   2 -17 4312.15 332.442  10
  -5  -2 -17 3690.73 323.227  10
  -5  -2 -17 3825.85 295.216   7
   5   3 -18 21870.9 349.673   9
   5  -3 -18 21383.4 386.882  10
   5   3 -18 22075.5 392.025   7
   5   3 -17 189.211 57.5366  10
   5  -3 -17 375.311 86.7967  10
   5   3 -17 307.323 72.6583   9
   5  -3 -17 257.140 60.6550   7
   5   3 -17 424.049 90.5150   7
   5   3 -16 36384.5 732.255  10
   5  -3 -16 37125.5 810.965  10
   5   3 -16 37710.8 682.423   9
   5  -3 -16 38723.3 701.355   7
   5   3 -16 37582.3 640.195  13
   5   3 -15 1659.06 172.429   9
   5   3 -15 1636.34 189.453  10
   5  -3 -15 1424.15 193.387  10
   5  -3 -15 1437.00 168.362   9
   5  -3 -15 1599.61 170.783   7
   5   3 -15 1729.10 163.800  13
   5   3 -14 14763.8 602.596  10
   5  -3 -14 15498.8 652.132  10
   5   3 -14 14989.8 510.629   9
   5  -3 -14 14966.5 540.139   9
   5   3 -14 14972.4 503.588  13
   5  -3 -14 15474.9 562.161   7
   5   3 -13 262.005 88.4192  10
   5  -3 -13 492.624 135.023  10
   5  -3 -13 339.069 109.018   9
   5   3 -13 223.482 89.0203   9
   5  -3 -13 367.453 129.858   7
   5   3 -13 289.868 90.5929  13
   5  -3 -13 453.005 129.545  13
   5   3 -12 8507.16 414.258   9
   5  -3 -12 9383.70 459.913   9
   5  -3 -12 9231.89 552.859  10
   5   3 -12 9352.30 533.996  10
   5  -3 -12 8476.70 468.142   7
   5  -3 -12 10488.1 514.917  13
   5   3 -12 9028.73 418.364  13
   5   3 -11 3543.12 271.833  13
  -5   3  11 3397.45 512.964   2
   5  -3 -11 3848.24 320.985  13
   5   3 -11 3638.54 554.134  18
   5  -3 -11 4013.62 678.814  16
  -5  -3  11 3099.16 544.174  17
   5  -3 -11 3662.59 293.828   9
   5   3 -11 3909.83 290.443   9
   5   3 -11 4107.26 359.909  10
   5  -3 -10 209860. 4739.70  16
   5   3 -10 217608. 2067.16  13
  -5  -3  10 227810. 3687.00   2
  -5   3  10 212535. 3847.52   2
   5  -3 -10 233544. 2476.52  13
   5   3 -10 226584. 2133.67   9
   5   3 -10 223485. 4137.79  18
  -5  -3  10 228323. 4503.93  17
   5  -3 -10 226273. 2210.04   9
   5   3  -9 110.092 67.4180  13
  -5   3   9 45.7236 150.138   2
  -5  -3   9 161.151 131.357   2
   5  -3  -9 148.739 85.0692   9
   5   3  -9 83.2255 121.814  18
   5  -3  -9 235.670 224.695  16
  -5  -3   9 85.5243 156.900  17
   5   3  -8 86095.0 2347.55  18
  -5  -3   8 83037.4 2553.29  17
  -5  -3   8 89560.5 2110.41   2
  -5   3   8 82846.9 2241.56   2
  -5  -3   7 7107.84 681.349  19
   5   3  -7 6939.78 666.692  18
  -5  -3   7 6755.48 702.763  17
  -5  -3   7 7466.32 569.915   2
  -5   3   7 7744.76 682.258   2
   5   3  -6 64070.6 2038.57  18
  -5  -3   6 69354.1 2065.90  17
   5  -3  -6 67108.9 2136.67   3
  -5  -3   6 73169.2 2322.08  19
  -5  -3   6 70423.1 1577.56   2
  -5   3   6 70802.7 1538.83   1
  -5   3   6 67570.1 1982.68   2
   5   3  -5 15468.5 1091.83  18
  -5  -3   5 14191.5 875.906  17
   5  -3  -5 13170.4 1005.12   3
  -5  -3   5 15399.0 1187.16  19
  -5  -3   5 14815.0 628.743   2
  -5   3   5 15706.3 861.461   1
  -5   3   5 15404.4 973.559   2
   5   3  -4 187119. 4086.62  18
  -5  -3   4 176847. 2886.63  17
   5  -3  -4 173795. 3965.11   3
  -5  -3   4 170439. 3749.83  19
  -5   3   4 191534. 3722.02   2
  -5   3   4 181180. 3379.44   1
   5   3  -3 57965.0 1908.05  18
  -5  -3   3 58680.6 1616.44  17
   5  -3  -3 60141.9 2389.63   3
  -5  -3   3 59649.8 2053.62  19
  -5   3   3 59160.8 1647.91   1
  -5   3   3 61415.7 2652.34   2
   5   3  -2 53799.4 1586.56  18
  -5  -3   2 54174.3 1690.53  17
   5  -3  -2 59085.3 2221.81   3
  -5  -3   2 57180.7 1861.57  19
  -5   3   2 53823.3 1434.98   1
  -5   3   2 58887.5 2171.48   2
   5   3  -1 5457.13 458.772  18
   5  -3  -1 5315.33 633.265   3
  -5   3   1 6084.22 607.464   2
  -5  -3   1 5244.75 545.706  19
  -5   3   1 5672.15 450.317   1
   5   3   0 306538. 3166.79  18
   5  -3   0 298035. 4270.25   3
  -5  -3   0 302823. 3365.69   4
  -5   3   0 290996. 3809.06   2
  -5  -3   0 294249. 3822.19  19
  -5   3   0 298748. 3197.91   1
  -5   3  -1 523.215 158.488   1
   5   3   1 528.282 145.507  18
  -5  -3  -1 508.312 174.336  19
  -5  -3  -1 442.368 185.072   4
   5  -3   1 568.651 205.860   3
   5   3   2 526812. 4014.76  18
   5  -3   2 519859. 4995.14   3
  -5  -3  -2 536515. 6345.26   4
  -5   3  -2 525662. 4439.50   1
  -5  -3  -2 520473. 5053.20  19
  -5  -3  -3 36037.5 1380.64  19
   5   3   3 36017.9 1070.00  18
  -5   3  -3 37230.5 1221.50   1
  -5   3  -3 40128.9 2224.73   4
   5  -3   3 36365.5 1267.05   3
  -5  -3  -3 36600.8 2062.66   4
  -5  -3  -3 34475.3 1116.81  16
  -5  -3  -4 21264.2 1182.61  19
  -5   3  -4 21515.7 1707.19   4
   5  -3   4 22258.9 969.364   3
  -5  -3  -4 22121.7 1689.71   4
  -5   3  -4 22914.4 995.999   1
   5   3   4 22644.1 885.091  18
  -5  -3  -4 21555.9 939.679  16
   5  -3   5 3335.95 373.261   3
  -5  -3  -5 3559.64 687.540   4
  -5   3  -5 3353.00 666.366   4
  -5   3  -5 3583.37 423.043   1
   5   3   5 3191.63 348.611  18
  -5  -3  -5 3905.70 440.157  16
  -5  -3  -6 245653. 3664.70  16
  -5   3  -6 247311. 3666.01   1
  -5   3  -6 250572. 5460.71   4
   5  -3   6 255948. 3188.07   3
  -5  -3  -6 256107. 5668.45   4
   5  -3   7 639.074 206.397  17
  -5  -3  -7 620.734 234.895  16
  -5   3  -7 700.281 230.019   1
  -5  -3  -7 334.421 232.389   4
  -5   3  -7 466.900 271.399   4
  -5  -3  -8 204918. 3828.75  16
   5  -3   8 195198. 3707.01  17
  -5   3  -8 204733. 3928.60   1
  -5   3  -8 206711. 4747.06   4
  -5  -3  -8 208506. 5147.26   4
  -5   3  -9 3336.29 259.773  15
  -5  -3  -9 3249.15 535.057  16
  -5  -3  -9 3144.76 289.935  15
  -5  -3  -9 3208.39 243.335  14
  -5   3  -9 3659.61 289.054  14
  -5  -3  -9 3213.58 266.508   6
  -5  -3  -9 3168.94 270.586   7
  -5  -3  -9 3245.73 258.539  11
  -5  -3  -9 3001.23 328.163  12
  -5   3  -9 3317.96 286.517  12
  -5   3  -9 3138.72 252.849  11
  -5   3  -9 3283.29 264.944  10
  -5  -3  -9 3554.32 283.071  10
  -5   3  -9 2858.36 570.870   4
  -5  -3  -9 3064.91 637.807   4
   5  -3   9 3462.97 524.306  17
  -5   3 -10 67656.9 1164.28  15
  -5  -3 -10 64359.5 2474.44  16
  -5  -3 -10 71252.5 1346.57  15
  -5  -3 -10 67509.6 1118.88  14
  -5  -3 -10 69632.7 1276.37   7
  -5  -3 -10 70231.1 1296.12   6
  -5   3 -10 67587.5 1272.97  12
  -5   3 -10 67932.3 1179.56  11
  -5  -3 -10 70515.5 1204.89  11
  -5  -3 -10 67563.0 1632.65  12
  -5   3 -10 68971.7 1250.38  10
  -5  -3 -10 67954.8 1262.58  10
  -5  -3 -10 74822.7 3152.46   4
  -5   3 -10 70886.8 2767.79   4
   5  -3  10 67711.4 2332.75  17
  -5  -3 -11 56.6530 128.200  15
  -5  -3 -11 172.740 87.6620  14
  -5   3 -11 109.746 93.0068  15
  -5  -3 -11-57.0613 137.612   7
  -5   3 -11 252.464 130.609  12
  -5   3 -11 121.773 86.7047  11
  -5  -3 -11 117.033 252.583  12
  -5  -3 -11 279.445 110.561  11
  -5   3 -11 152.447 183.846   4
  -5  -3 -11 124.183 96.7354   6
  -5  -3 -11 24.3418 92.5243  10
  -5   3 -11 303.880 101.166  10
   5  -3  11 346.760 251.943  17
  -5  -3 -11 282.026 213.675  16
  -5   3 -12 85426.3 1507.77  10
  -5  -3 -12 84338.3 1522.92  10
  -5   3 -12 83130.3 1301.10  15
  -5  -3 -12 81296.8 1501.40  15
  -5  -3 -12 87781.8 1542.31   7
  -5  -3 -12 87151.0 1915.48  12
  -5   3 -12 85553.1 1473.13  12
  -5   3 -13 3211.28 313.452  10
  -5  -3 -13 3084.55 310.833  10
  -5   3 -13 2902.97 247.444  15
  -5  -3 -13 2864.54 301.279   7
  -5  -3 -13 3382.54 425.340  12
  -5   3 -13 3017.18 298.105  12
  -5  -3 -14 35191.2 1007.36  10
  -5   3 -14 33162.7 982.365  10
  -5   3 -14 32280.8 754.530  15
  -5  -3 -14 33061.3 980.976   7
  -5   3 -14 33576.1 921.859  12
  -5  -3 -14 35080.4 1182.34  12
  -5   3 -15 549.064 158.913  10
  -5  -3 -15 356.173 132.252  10
  -5   3 -15 265.998 133.909  12
  -5  -3 -15 155.175 105.911   7
  -5  -3 -16 198.078 109.599   7
  -5   3 -16 359.335 120.320  10
  -5  -3 -16 78.9988 103.021  10
  -5   3 -17 2990.80 237.620  12
  -5  -3 -17 2343.87 233.197   7
  -5   3 -17 2142.05 170.616  10
  -5  -3 -17 2300.84 246.081  10
   5   4 -17 54920.0 759.073   7
   5   4 -17 52812.7 661.487   9
   5   4 -16 1206.03 125.045  10
   5  -4 -16 1212.15 152.958  10
   5   4 -16 1153.12 123.859   9
   5  -4 -16 1372.97 124.400   7
   5   4 -16 1233.82 120.687  13
   5   4 -15 44538.2 788.014   9
   5   4 -15 44253.9 866.621  10
   5  -4 -15 43613.8 960.379  10
   5  -4 -15 45588.4 809.991   7
   5   4 -15 44354.3 770.945  13
   5   4 -14 4181.74 307.316  10
   5   4 -14 4233.98 273.426   9
   5  -4 -14 4174.10 339.361  10
   5   4 -14 4667.14 278.494  13
   5  -4 -14 4399.58 291.435   7
   5  -4 -13 153.632 94.3669   9
   5   4 -13 289.189 94.0884   9
   5   4 -13 475.947 122.086  10
   5  -4 -13 111.042 101.814  10
   5  -4 -13 190.135 97.2196   7
   5   4 -13 325.881 85.9475  13
   5   4 -12 7638.66 402.066   9
   5   4 -12 7195.63 467.132  10
   5  -4 -12 7372.99 495.333  10
   5  -4 -12 7193.19 417.221   9
   5   4 -12 7258.28 380.591  13
   5  -4 -12 7510.90 431.460   7
   5  -4 -11 62008.3 2683.37  16
   5   4 -11 64782.6 1151.55  13
  -5   4  11 65989.2 2281.93   2
   5  -4 -11 65299.7 1391.89  13
  -5  -4  11 66889.0 2516.95  17
   5   4 -11 62784.2 2272.22  18
   5  -4 -11 67619.1 1280.81   9
   5   4 -11 63709.9 1409.04  10
   5  -4 -11 64490.3 1455.90  10
   5   4 -11 64641.1 1167.87   9
  -5   4  10 89.8441 154.382   2
   5  -4 -10 238.956 156.711  16
  -5  -4  10 183.825 164.774  17
   5   4 -10-134.893 155.238  18
   5  -4 -10 54.9379 99.4799   9
   5   4 -10 66.1895 100.672   9
   5   4 -10-19.3102 96.4078  13
   5  -4 -10-73.7831 147.102  13
   5  -4  -9 179992. 4360.11  16
   5   4  -9 180031. 2008.76  13
   5  -4  -9 177142. 2101.23   9
   5   4  -9 166098. 3421.11  18
  -5  -4   9 175249. 3993.10  17
   5  -4  -9 175872. 2385.96  13
   5   4  -9 176951. 2004.68   9
  -5   4   9 169378. 3496.59   2
   5   4  -8 242.931 177.278  18
  -5  -4   8 94.8745 159.551  19
  -5   4   8 316.396 197.799   2
   5  -4  -8 179.518 164.462  16
  -5  -4   8 577.311 279.788  17
  -5   4   7 46136.3 1793.20   2
  -5  -4   7 50248.0 2033.23  19
   5   4  -7 45336.8 1788.04  18
  -5  -4   7 50085.9 1945.32  17
  -5   4   6 5904.27 662.011   2
  -5  -4   6 6204.52 832.300  19
   5   4  -6 5722.74 687.475  18
  -5  -4   6 6697.27 676.424  17
   5  -4  -6 6587.06 776.478   3
  -5   4   5 272159. 4198.37   1
  -5  -4   5 275024. 4956.31  19
  -5  -4   5 270746. 3941.30  17
   5  -4  -5 285568. 5622.53   3
  -5   4   4 9825.58 993.345   2
  -5   4   4 12823.5 814.502   1
  -5  -4   4 10997.9 904.684  19
   5   4  -4 11382.2 966.603  18
  -5  -4   4 12706.3 790.299  17
   5  -4  -4 12285.3 1160.12   3
  -5   4   3 368793. 3879.02   1
  -5   4   3 374772. 6908.86   2
   5   4  -3 383383. 4771.09  18
  -5  -4   3 365856. 4043.37  17
   5  -4  -3 403887. 6158.55   3
  -5  -4   3 409132. 5063.06  19
  -5   4   2-3.78250 171.753   2
  -5   4   2 199.850 116.224   1
  -5  -4   2 250.216 136.568  17
   5   4  -2 124.096 122.919  18
  -5  -4   2 164.238 162.092  19
   5  -4  -2 350.241 220.417   3
  -5   4   1 5215.41 436.366   1
  -5  -4   1 5550.58 534.089  19
   5   4  -1 6709.41 517.458  18
  -5   4   1 5323.35 625.168   2
   5  -4  -1 5754.21 652.787   3
  -5   4   0 2279.42 298.318   1
  -5  -4   0 2396.62 346.429  19
   5   4   0 1940.39 268.359  18
   5  -4   0 2048.75 367.524   3
  -5   4   0 2131.12 360.572   2
  -5   4  -1 267882. 3203.45   1
  -5  -4  -1 274061. 3537.89  19
   5   4   1 268500. 3090.66  18
   5  -4   1 268436. 3863.19   3
  -5   4  -2 1970.06 299.959   1
   5   4   2 2032.46 282.450  18
   5  -4   2 1872.41 331.959   3
  -5  -4  -2 2068.09 313.592  19
  -5  -4  -3 180457. 2934.86  19
  -5   4  -3 181229. 2827.54   1
  -5  -4  -3 170919. 2560.67  16
   5  -4   3 175023. 2919.99   3
  -5  -4  -3 187505. 4772.72   4
   5   4   3 174882. 2598.50  18
  -5  -4  -4 31863.1 1294.96  19
  -5   4  -4 31081.0 1224.77   1
   5  -4   4 33142.7 1250.06   3
  -5   4  -4 29686.8 2152.28   4
  -5  -4  -4 29709.7 2224.12   4
  -5  -4  -4 29905.6 1138.36  16
   5   4   4 31130.9 1129.81  18
  -5   4  -5 6577.57 592.789   1
   5  -4   5 6159.07 535.951   3
  -5   4  -5 6121.59 955.971   4
  -5  -4  -5 6010.07 977.593   4
  -5  -4  -5 6075.25 553.549  16
   5   4   5 6717.14 547.951  18
  -5   4  -6 39889.3 2282.79   4
  -5  -4  -6 39298.7 2443.22   4
   5  -4   6 38432.2 1325.62   3
  -5  -4  -6 37614.3 1459.80  16
  -5   4  -6 38030.4 1503.27   1
  -5   4  -7 114767. 2773.43   1
  -5   4  -7 111639. 3707.69   4
  -5  -4  -7 108106. 2668.14  16
   5  -4   7 114720. 2824.53  17
  -5  -4  -7 118569. 4180.20   4
  -5  -4  -8 900.910 151.811   7
   5  -4   8 304.985 199.658  17
  -5  -4  -8 651.800 248.132  16
  -5   4  -8 623.060 286.598   4
  -5   4  -8 637.957 250.943   1
   5  -4   9 96422.2 2770.43  17
  -5   4  -9 95417.2 1365.71  15
  -5  -4  -9 97285.2 1644.39  15
  -5  -4  -9 93554.0 2827.65  16
  -5  -4  -9 93536.3 1283.55  14
  -5  -4  -9 95239.9 1457.03   7
  -5  -4  -9 96169.8 1477.17   6
  -5   4  -9 95000.0 1474.73  12
  -5  -4  -9 96384.2 2119.88  12
  -5   4  -9 97052.4 1363.80  11
  -5  -4  -9 93697.0 1353.96  11
  -5   4  -9 96527.4 3043.73   1
  -5   4  -9 98754.9 3365.68   4
  -5  -4  -9 93456.5 1412.83  10
  -5   4  -9 95546.1 1390.21  10
  -5  -4 -10 205.030 85.7175  14
  -5  -4 -10 28.3744 140.342  15
  -5   4 -10 418.166 130.188  15
  -5  -4 -10 197.607 106.117   7
  -5   4 -10 371.311 123.947  11
  -5  -4 -10 92.0128 292.862  12
  -5  -4 -10 285.146 101.856  11
  -5   4 -10 420.535 144.963  12
  -5   4 -10 283.591 221.098   4
  -5   4 -10 160.706 156.091   5
  -5  -4 -10 200.980 107.116   6
   5  -4  10 330.238 239.899  17
  -5  -4 -10 279.722 221.807  16
  -5   4 -10 446.543 123.578  10
  -5  -4 -10 259.035 117.671  10
  -5   4 -11 61812.4 1160.29  11
  -5  -4 -11 66417.1 1204.49  11
  -5  -4 -11 65855.5 1775.05  12
  -5   4 -11 67816.9 1270.13  12
  -5  -4 -11 66329.0 1082.76  14
  -5   4 -11 66588.1 1143.30  15
  -5  -4 -11 63776.1 1378.26  15
  -5  -4 -11 67260.9 1363.99   6
  -5  -4 -11 67983.1 1331.82   7
  -5   4 -11 67821.1 1279.51  10
  -5  -4 -11 65383.4 1283.48  10
  -5   4 -12 12236.5 551.994  12
  -5  -4 -12 12794.2 799.861  12
  -5   4 -12 12099.2 482.788  15
  -5  -4 -12 11899.0 580.433   7
  -5  -4 -12 13094.3 636.363   6
  -5   4 -12 12430.2 571.712  10
  -5  -4 -12 12013.2 569.697  10
  -5   4 -13 115741. 1658.85  12
  -5   4 -13 119265. 1803.21  10
  -5  -4 -13 119764. 1804.00  10
  -5   4 -13 117043. 1440.92  15
  -5  -4 -13 118970. 1844.25   7
  -5   4 -14 320.211 147.129  12
  -5  -4 -14 6.18668 115.059  10
  -5   4 -14 158.785 103.780  10
  -5  -4 -14 163.787 144.704   7
  -5   4 -14 93.7576 91.4883  15
  -5   4 -15 17064.1 695.727  10
  -5  -4 -15 17679.8 694.980  10
  -5  -4 -15 17382.1 701.614   7
  -5   4 -15 15977.4 583.043  12
  -5   4 -16 422.745 142.257  10
  -5  -4 -16 301.586 112.918  10
  -5  -4 -16 25.3804 164.249   7
  -5   4 -16 227.907 127.018  12
  -5  -4 -17 4852.33 291.467  10
  -5  -4 -17 5202.83 304.238   7
   5  -5 -17-34.0897 49.0730  10
   5   5 -17 18.6719 47.0527   9
   5   5 -17-26.8145 51.3756   7
   5   5 -16 50635.0 720.230   9
   5  -5 -16 50191.0 813.967  10
   5   5 -16 49462.5 658.331  13
   5   5 -15 1042.12 133.836   9
   5  -5 -15 936.622 143.449  10
   5   5 -15 1170.43 130.443  13
   5   5 -14 18520.2 539.906   9
   5  -5 -14 18285.7 661.718  10
   5   5 -14 18152.9 526.354  13
   5   5 -13 5497.93 324.696   9
   5  -5 -13 5447.84 399.030  10
   5   5 -13 5753.15 323.372  13
   5   5 -12 28392.2 760.065   9
   5  -5 -12 28400.9 955.862  10
   5   5 -12 28049.5 740.406  13
   5  -5 -11 1280.87 197.655   9
   5   5 -11 1082.80 174.644   9
   5   5 -11 1680.46 201.981  13
   5  -5 -11 1264.59 235.746  10
  -5   5  10 118398. 3146.26   2
   5   5 -10 124196. 1708.06  13
   5   5 -10 121035. 3037.57  18
   5  -5 -10 122349. 3842.85  16
   5   5 -10 119523. 1691.83   9
   5  -5 -10 128788. 1911.59   9
  -5   5   9 30516.3 1580.97   2
   5   5  -9 29711.5 888.713  13
   5   5  -9 29364.1 1470.31  18
  -5  -5   9 31614.8 1728.97  17
   5  -5  -9 30864.8 978.186   9
   5  -5  -9 30181.3 1874.49  16
   5   5  -9 30576.4 884.282   9
  -5  -5   9 30321.9 906.619  20
   5   5  -8 79176.1 1550.09  13
  -5  -5   8 85633.9 2689.17  19
  -5  -5   8 83815.4 1650.40  20
   5  -5  -8 78977.7 1603.57   9
   5   5  -8 75700.5 2383.32  18
  -5  -5   8 78367.8 2637.66  17
   5  -5  -8 71964.2 2878.70  16
  -5   5   8 75356.4 2474.48   2
   5   5  -7 13757.6 1056.55  18
  -5  -5   7 12405.6 1005.71  17
  -5  -5   7 13974.6 1261.10  19
  -5   5   7 14644.9 1105.63   2
   5  -5  -6 70425.6 2817.08   3
   5   5  -6 65798.8 2569.72  18
  -5  -5   6 67650.5 2190.45  17
  -5   5   6 68874.3 2465.79   2
   5  -5  -5 14786.0 1387.18   3
   5   5  -5 15559.7 1322.19  18
  -5  -5   5 13969.9 917.733  17
  -5  -5   5 13414.3 1075.21  19
  -5   5   5 13560.7 1178.43   2
   5   5  -4 217906. 4189.54  18
  -5  -5   4 217938. 3331.30  17
  -5  -5   4 217226. 3905.13  19
  -5   5   4 208885. 3166.69   1
  -5   5   4 212285. 5385.07   2
   5  -5  -3 13666.1 1172.23   3
  -5   5   3 13119.3 1360.81   2
   5   5  -3 12503.7 867.375  18
  -5  -5   3 12248.9 747.481  17
  -5  -5   3 12743.2 889.764  19
  -5   5   3 13248.2 739.268   1
  -5   5   2 19027.1 1432.24   2
   5  -5  -2 19182.3 1290.50   3
  -5  -5   2 20114.8 1012.15  17
   5   5  -2 18777.3 962.024  18
  -5  -5   2 19997.4 1054.36  19
  -5   5   2 17961.6 843.740   1
  -5   5   1 62905.9 2254.09   2
   5  -5  -1 62485.8 2168.15   3
   5   5  -1 59284.8 1610.95  18
  -5  -5   1 64310.6 1807.33  19
  -5   5   1 57705.0 1504.39   1
   5  -5   0 59664.0 1999.65   3
   5   5   0 63107.5 1626.26  18
  -5  -5   0 62014.3 1748.44  19
  -5   5   0 61834.7 1581.44   1
   5  -5   1 27352.4 1292.28   3
   5   5   1 26426.9 1050.91  18
  -5  -5  -1 27844.8 1158.18  19
  -5   5  -1 27198.2 1079.68   1
   5  -5   2 367448. 4606.41   3
  -5  -5  -2 359750. 4162.87  19
   5   5   2 368650. 3978.92  18
  -5   5  -2 364944. 4090.56   1
   5  -5   3 499.652 201.104   3
  -5  -5  -3 61.8319 98.2434  16
   5   5   3 270.624 145.468  18
  -5  -5  -3 327.366 145.795  19
  -5   5  -3 559.231 186.645   1
   5  -5   4 929.760 226.327   3
  -5  -5  -4 1153.37 243.160  16
   5   5   4 1340.94 270.071  18
  -5  -5  -4 1396.95 271.612  19
  -5   5  -4 1494.44 300.650   1
   5  -5   5 846.902 222.741   3
  -5   5  -5 971.101 379.252   4
  -5  -5  -5 871.121 228.050  16
   5   5   5 333.740 158.500  18
  -5  -5  -5 120.847 124.717  19
  -5   5  -5 579.662 212.266   1
   5  -5   6 126395. 2563.94   3
  -5   5  -6 123809. 4237.14   4
  -5  -5  -6 123660. 2727.78  16
   5  -5   6 131666. 3089.37  17
   5   5   6 122297. 2647.40  18
  -5   5  -6 129246. 2907.02   1
  -5   5  -7 616.593 327.838   4
   5  -5   7 1095.53 330.127  17
  -5  -5  -7 1228.47 317.754  16
  -5   5  -7 1028.72 300.257   1
   5  -5   8 238425. 4438.54  17
  -5   5  -8 246697. 2183.13  15
  -5  -5  -8 243530. 2744.20  15
  -5  -5  -8 230296. 4255.37  16
  -5  -5  -8 239075. 2130.86  10
  -5  -5  -8 237502. 2268.66   6
  -5   5  -8 235106. 4466.70   1
  -5  -5  -8 242982. 2273.08   7
  -5   5  -8 241765. 2345.00  12
  -5   5  -8 242766. 2163.19   9
  -5   5  -8 241713. 5502.77   4
  -5   5  -9 457.704 121.857   9
   5  -5   9 280.866 203.713  17
  -5  -5  -9 27.7087 161.488  16
  -5  -5  -9 682.346 216.309  15
  -5   5  -9 357.391 112.637  15
  -5  -5  -9 534.278 134.522  10
  -5  -5  -9 436.945 127.920   6
  -5   5  -9 506.508 182.128   5
  -5   5  -9 608.230 273.401   1
  -5  -5  -9 182.978 313.389  12
  -5  -5  -9 343.738 105.913  11
  -5   5  -9 638.285 159.919  12
  -5   5  -9 229.235 100.260  11
  -5   5  -9 10.0513 118.631   4
  -5  -5  -9 402.230 134.002   7
  -5  -5 -10 2016.31 239.097   7
  -5  -5 -10 2174.31 244.516   6
  -5  -5 -10 1728.29 208.171  10
  -5   5 -10 1558.81 303.806   5
  -5   5 -10 1918.49 214.031   9
  -5   5 -10 1873.65 468.452   4
  -5   5 -10 1683.56 197.097  11
  -5   5 -10 1898.55 221.259  12
  -5  -5 -10 1778.38 192.832  11
  -5  -5 -10 1484.17 324.954  12
   5  -5  10 1847.75 412.670  17
  -5  -5 -10 1623.54 417.892  16
  -5   5 -10 1663.88 188.309  15
  -5  -5 -11 26249.1 1226.09  12
  -5   5 -11 24646.7 768.117  12
  -5  -5 -11 24770.9 816.490   7
  -5  -5 -11 24650.3 834.503   6
  -5  -5 -11 24126.3 765.282  10
  -5   5 -11 25012.1 768.021   9
  -5   5 -11 24562.3 684.419  15
  -5   5 -12 50420.6 1074.50  12
  -5  -5 -12 52712.4 1663.68  12
  -5  -5 -12 49766.3 1185.74   7
  -5  -5 -12 50049.3 1241.64   6
  -5  -5 -12 48912.6 1111.49  10
  -5   5 -12 51082.3 1166.23   9
  -5   5 -12 50473.1 944.948  15
  -5  -5 -13 2181.77 247.181  10
  -5   5 -13 2328.13 241.950  12
  -5  -5 -13 2473.10 282.738   7
  -5  -5 -13 2301.30 275.163   6
  -5  -5 -14 60099.7 1312.24   7
  -5  -5 -14 58001.1 1211.50  10
  -5  -5 -15 5749.57 410.903   7
  -5   5 -15 5709.66 329.926  12
  -5  -5 -15 6303.43 399.893  10
  -5  -5 -16-56.3146 144.194   7
  -5   5 -16 43.9024 132.136  12
  -5  -5 -16 43.1859 92.8106  10
  -5  -5 -17 2331.25 174.070   7
   5   6 -17 36514.7 451.451   9
   5   6 -17 37293.5 493.308   7
   5   6 -16 2592.80 159.461   9
   5  -6 -16 2316.24 152.220  10
   5   6 -16 2430.43 138.059  13
   5  -6 -15 56816.3 916.986  10
   5   6 -15 58960.6 829.867   9
   5   6 -15 57319.5 793.172  13
   5   6 -14 1933.94 178.531   9
   5  -6 -14 1754.77 197.264  10
   5   6 -14 1955.59 173.919  13
   5   6 -13 331.495 98.8666   9
   5  -6 -13 335.819 110.860  10
   5   6 -13 325.107 94.5714  13
   5   6 -12 11075.0 477.337   9
   5  -6 -12 10832.4 575.395  10
   5   6 -12 11049.2 470.409  13
   5   6 -11 49435.9 1056.49   9
   5   6 -11 49640.2 1053.42  13
   5  -6 -11 49313.3 1292.04  10
  -5   6  10 333.412 207.058   2
   5   6 -10 1089.83 182.367  13
   5   6 -10 965.297 307.534  18
  -5  -6  10 665.724 248.863  17
   5  -6 -10 979.720 398.171  16
   5   6 -10 816.476 164.978   9
   5  -6 -10 1237.50 236.669  10
   5   6  -9 74540.7 1505.96  13
   5  -6  -9 77678.8 3153.05  16
  -5   6   9 73261.6 2599.59   2
  -5  -6   9 80516.8 1594.86  20
   5   6  -9 72738.8 1428.82   9
   5   6  -9 75323.2 2383.34  18
  -5  -6   9 74366.9 2649.35  17
   5   6  -8 45826.1 1308.40  13
   5  -6  -8 42954.5 2305.24  16
  -5   6   8 47114.3 2107.89   2
  -5  -6   8 42116.8 2122.43  19
  -5  -6   8 49514.0 1412.20  20
   5   6  -8 45149.2 1162.88   9
   5   6  -8 45305.5 1908.06  18
  -5  -6   8 47377.0 2058.17  17
  -5  -6   7 286.374 125.384  20
   5   6  -7 789.371 175.757  13
  -5   6   7 643.351 305.903   2
   5   6  -7 863.131 303.718  18
  -5  -6   7 359.687 274.525  19
   5  -6  -7 558.113 331.081  16
  -5  -6   7 803.570 276.244  17
   5   6  -6 118.185 213.228  18
  -5  -6   6 264.834 254.132  19
   5  -6  -6 618.831 303.360   3
  -5  -6   6 351.683 218.605  17
  -5   6   6 179.741 247.721   2
  -5  -6   5 236312. 4465.06  19
   5   6  -5 242833. 5203.28  18
  -5  -6   5 239334. 3825.32  17
   5   6  -4 474.367 255.846  18
  -5  -6   4 339.378 212.879  19
   5  -6  -4 173.779 279.625   3
  -5  -6   4 364.673 159.254  17
  -5   6   4-88.4699 295.818   2
  -5   6   4 38.9660 91.2819   1
  -5  -6   3 128789. 2875.22  19
  -5   6   3 140245. 4677.83   2
   5  -6  -3 143712. 3939.80   3
   5   6  -3 140468. 3013.06  18
  -5  -6   3 135002. 2498.91  17
  -5   6   3 137419. 2428.94   1
  -5  -6   2 10988.5 809.886  19
   5  -6  -2 10909.9 1012.20   3
  -5   6   2 11882.5 1199.41   2
   5   6  -2 11999.7 816.265  18
  -5   6   2 10396.0 665.220   1
  -5  -6   1 3015.76 421.139  19
   5  -6  -1 3081.89 512.425   3
  -5   6   1 3118.78 555.287   2
  -5   6   1 3089.67 374.317   1
   5   6  -1 3076.27 396.677  18
   5  -6   0 634.383 260.330   3
   5   6   0 975.690 230.509  18
  -5  -6   0 806.086 226.790  19
  -5   6   0 919.425 211.152   1
  -5  -6  -1 211234. 3379.42  19
   5  -6   1 210891. 3901.47   3
   5   6   1 220866. 3282.80  18
  -5   6  -1 207903. 3162.63   1
  -5  -6  -2 24018.8 1140.96  19
   5  -6   2 25418.7 1295.49   3
  -5   6  -2 24241.5 1118.48   1
   5   6   2 24285.9 1115.22  18
   5   6   3 54961.1 1719.39  18
  -5  -6  -3 59065.1 1814.19  19
   5  -6   3 58394.0 1948.04   3
  -5  -6  -3 56629.1 1524.49  16
  -5   6  -3 53379.6 1720.54   1
   5   6   4 42064.9 1556.55  18
   5  -6   4 40017.8 1381.47  19
  -5  -6  -4 45416.4 1617.63  19
   5  -6   4 41732.0 1632.66   3
  -5  -6  -4 37514.3 1342.23  16
  -5   6  -4 40073.4 1555.40   1
   5   6   5 14182.7 938.193  18
  -5  -6  -5 13563.0 930.574  19
  -5   6  -5 13493.6 1581.13   4
   5  -6   5 13967.0 925.549   3
  -5  -6  -5 12166.5 819.384  16
  -5   6  -5 15191.5 999.313   1
  -5   6  -6 7903.33 1136.89   4
   5  -6   6 7615.87 679.018   3
   5   6   6 6067.99 641.698  18
  -5   6  -6 7441.48 746.057   1
   5  -6   6 6342.62 752.984  17
  -5  -6  -6 7053.93 673.533  16
  -5  -6  -7 147083. 2400.28  15
  -5  -6  -7 142864. 3191.51  16
   5  -6   7 149662. 3558.79  17
  -5   6  -7 154015. 1742.58  15
  -5   6  -7 144457. 4611.67   4
  -5   6  -7 147705. 2032.78   5
  -5  -6  -7 152559. 1799.34   6
  -5   6  -7 145529. 3436.22   1
  -5  -6  -7 148202. 3704.64  12
  -5   6  -7 145028. 1855.21  12
   5   6   7 150984. 3265.56  18
  -5  -6  -7 148119. 1766.48   7
   5   6   8 36594.1 1668.09  18
  -5  -6  -8 40810.2 1297.45  15
  -5   6  -8 37268.5 859.679  15
  -5  -6  -8 37560.8 1746.77  16
   5  -6   8 38949.6 1865.66  17
  -5  -6  -8 36556.7 920.821   7
  -5   6  -8 38623.9 2297.66   4
  -5  -6  -8 41566.1 1844.96  12
  -5   6  -8 37143.4 936.970  12
  -5   6  -8 38191.2 1873.88   1
  -5   6  -8 36667.0 1107.64   5
  -5  -6  -8 38750.4 949.254   6
  -5   6  -8 38605.6 905.282   9
   5  -6   9 17090.0 1261.40  17
  -5   6  -9 16060.9 562.497  15
  -5  -6  -9 18491.4 1300.01  16
  -5  -6  -9 17881.9 660.941   7
  -5   6  -9 18573.6 1412.57   1
  -5   6  -9 17532.2 639.071  12
  -5  -6  -9 19530.9 1240.38  12
  -5   6  -9 17948.5 626.072   9
  -5   6  -9 17729.3 839.245   5
  -5  -6  -9 17508.0 664.021   6
  -5  -6  -9 17320.8 599.480  10
  -5   6  -9 17794.7 1493.11   4
  -5  -6 -10 31102.7 898.535   7
  -5  -6 -10 30847.5 908.648   6
  -5  -6 -10 33518.7 1431.14  12
  -5   6 -10 30868.0 843.294  12
  -5   6 -10 30411.8 758.196  15
  -5   6 -10 28175.6 1150.17   5
  -5  -6 -10 29754.6 804.856  10
  -5   6 -10 30898.7 831.202   9
  -5  -6 -11 30340.0 916.723   7
  -5  -6 -11 29926.8 924.321   6
  -5   6 -11 28966.0 810.563  12
  -5   6 -11 29086.8 718.914  15
  -5   6 -11 28499.8 1227.64   5
  -5  -6 -11 29170.7 814.108  10
  -5   6 -11 30681.3 846.965   9
  -5   6 -12 11440.0 501.067  12
  -5  -6 -12 11080.3 511.913  10
  -5  -6 -12 12001.3 588.259   7
  -5  -6 -12 12200.0 610.281   6
  -5   6 -12 11680.0 550.531   9
  -5   6 -13 64429.9 1134.24  12
  -5   6 -13 59526.4 1287.63   9
  -5  -6 -13 60197.2 1184.83  10
  -5  -6 -13 64498.6 1354.08   7
  -5  -6 -13 63366.1 1427.40   6
  -5   6 -14 1620.83 196.584  12
  -5  -6 -14 1573.88 200.569  10
  -5  -6 -14 1626.06 257.606   6
  -5  -6 -14 1375.22 217.399   7
  -5   6 -15 29518.1 662.883  12
  -5  -6 -15 27801.9 774.916  10
  -5  -6 -15 30290.6 894.349   7
  -5  -6 -16 220.259 126.032   7
   5   7 -16 55606.2 624.586   9
   5   7 -15 2509.68 160.115  13
   5   7 -15 2398.72 161.650   9
   5  -7 -15 2633.99 174.670   6
   5   7 -14 20651.9 508.226  13
   5   7 -14 21668.5 526.455   9
   5  -7 -14 19755.5 551.460  10
   5  -7 -13 1162.79 168.453  10
   5   7 -13 1250.07 160.966   9
   5   7 -13 1282.15 153.215  13
   5   7 -12 34065.5 806.089   9
   5  -7 -12 35196.4 968.062  10
   5   7 -12 34274.6 806.196  13
   5   7 -11 2925.41 268.732  13
   5   7 -11 2678.30 250.605   9
  -5  -7  10 67076.3 1375.96  20
   5   7 -10 67563.2 1306.17   9
   5   7 -10 70282.3 1391.79  13
   5   7  -9 6058.81 464.301  13
  -5   7   9 5810.82 767.041   2
   5   7  -9 6151.26 699.174  18
  -5  -7   9 5710.99 714.237  17
  -5  -7   9 6240.51 484.757  20
   5   7  -9 6403.73 435.178   9
   5  -7  -9 5923.83 927.487  16
   5   7  -8 47544.0 1361.04  13
  -5   7   8 51357.4 2383.85   2
   5   7  -8 50122.8 2062.31  18
  -5  -7   8 49053.1 2061.97  17
  -5  -7   8 53786.4 2623.66  19
  -5  -7   8 51871.4 1442.66  20
   5   7  -8 50164.0 1262.75   9
   5  -7  -8 44473.8 2469.94  16
   5   7  -7 41722.8 1159.77  13
  -5   7   7 44252.8 2291.48   2
   5   7  -7 41614.2 2045.99  18
  -5  -7   7 42028.0 1824.23  17
  -5  -7   7 36493.8 2166.54  19
  -5  -7   7 41508.0 1215.25  20
   5   7  -7 44637.5 1243.30   9
   5  -7  -7 42556.6 2403.82  16
   5   7  -6 50970.8 2660.21  18
  -5  -7   6 53338.4 1927.38  17
   5   7  -6 48703.5 1153.97  13
  -5   7   6 43881.1 2468.36   2
  -5  -7   6 48281.1 2260.25  19
  -5  -7   6 48379.3 1223.64  20
  -5  -7   5 5057.69 679.402  19
  -5   7   5 7233.07 1143.62   2
   5  -7  -5 6092.61 1011.36   3
   5   7  -5 5865.21 856.320  18
  -5  -7   4 239020. 4293.91  19
   5   7  -4 250755. 4724.57  18
  -5   7   4 236092. 7407.96   2
   5  -7  -4 248009. 5912.73   3
  -5   7   3 21536.6 1012.63   1
  -5  -7   3 23882.4 1291.14  19
   5   7  -3 21614.1 1247.51  18
  -5   7   3 20530.4 1918.62   2
   5  -7  -3 22816.3 1691.00   3
  -5   7   2 10520.4 703.689   1
  -5  -7   2 9896.21 808.145  19
   5   7  -2 12854.1 899.559  18
  -5   7   2 10350.8 1187.86   2
   5  -7  -2 11919.4 1130.85   3
  -5   7   1 50721.5 1571.66   1
  -5  -7   1 51042.9 1790.20  19
   5   7  -1 53420.8 1758.42  18
  -5   7   1 48324.5 2294.33   2
   5  -7  -1 51128.3 2225.66   3
  -5   7   0 104259. 2312.19   1
  -5  -7   0 108122. 2587.55  19
   5   7   0 103798. 2421.66  18
   5  -7   0 111138. 3114.69   3
  -5   7  -1 14339.6 884.504   1
  -5  -7  -1 15616.1 980.535  19
   5   7   1 14606.0 915.853  18
   5  -7   1 15286.8 1132.19   3
  -5   7  -2 113386. 2562.90   1
  -5  -7  -2 111775. 2624.66  19
   5  -7   2 116713. 2963.10   3
   5   7   2 110923. 2557.06  18
  -5   7  -3 295.570 167.349   1
   5   7   3 501.415 210.472  18
  -5  -7  -3 334.231 200.727  19
   5  -7   3 244.152 162.686   3
   5   7   4 14583.4 981.755  18
  -5  -7  -4 15256.3 1006.48  19
  -5  -7  -4 13849.5 816.138  16
  -5   7  -4 14612.1 995.238   1
   5  -7   4 14244.0 1010.14   3
   5  -7   5 788.860 247.058   3
  -5   7  -5 1679.46 613.637   4
  -5  -7  -5 1940.23 202.339   7
  -5  -7  -5 1533.88 182.257   6
  -5  -7  -5 2144.09 376.163  16
   5  -7   5 876.024 319.563  17
  -5   7  -5 1735.04 370.746   1
   5   7   5 1471.63 343.425  18
   5   7   6 54346.8 2026.83  18
  -5   7  -6 57278.5 1087.92  15
  -5  -7  -6 53137.4 1060.70   7
   5  -7   6 53839.0 1008.63  20
  -5   7  -6 51532.3 2040.11   1
  -5  -7  -6 53761.3 1864.74  16
   5  -7   6 52265.6 2192.99  17
  -5  -7  -6 55376.6 1074.08   6
  -5   7  -6 53711.9 1185.43   5
  -5   7  -6 53031.2 3105.03   4
   5  -7   6 53092.1 1899.50   3
   5  -7   7 1076.51 347.920  17
  -5  -7  -7 1909.48 389.926  16
  -5   7  -7 1808.03 211.418  15
  -5  -7  -7 1526.25 200.366   7
  -5   7  -7 1729.53 238.833   5
  -5  -7  -7 1892.64 228.972   6
  -5   7  -7 2020.95 450.956   1
   5   7   7 1581.32 373.205  18
  -5   7  -7 1778.62 539.602   4
   5   7   8 223126. 4344.73  18
  -5  -7  -8 223133. 4309.15  16
  -5   7  -8 228412. 2120.36  15
   5  -7   8 239124. 4789.29  17
  -5  -7  -8 228412. 2334.34   7
  -5   7  -8 236854. 2363.12  12
  -5   7  -8 224120. 4732.50   1
  -5   7  -8 236190. 2299.95   9
  -5   7  -8 233757. 5802.23   4
  -5  -7  -8 234361. 2373.68   6
  -5   7  -8 239348. 2804.89   5
  -5  -7  -9 3252.95 309.405   7
  -5  -7  -9 3133.89 302.757   6
  -5   7  -9 3077.68 251.279  15
  -5   7  -9 2595.02 327.956   5
  -5   7  -9 3502.29 303.379  12
  -5   7  -9 3276.92 291.650   9
  -5   7 -10 83.6985 123.865  12
  -5  -7 -10 253.698 107.556   6
  -5   7 -10 38.3697 137.228   5
  -5  -7 -10 215.603 111.988   7
  -5   7 -10 90.7581 97.2312   9
  -5   7 -11 15277.7 568.056  12
  -5   7 -11 13140.4 805.673   5
  -5  -7 -11 13897.8 616.942   7
  -5  -7 -11 14455.2 642.534   6
  -5   7 -11 13792.3 567.399   9
  -5   7 -12 33260.9 801.264  12
  -5  -7 -12 33002.6 957.617   7
  -5  -7 -12 33245.6 986.727   6
  -5   7 -12 32952.9 890.530   9
  -5   7 -13 57.1977 87.4300  12
  -5  -7 -13 41.2774 108.291   6
  -5  -7 -13-39.2968 139.880   7
  -5   7 -13 40.5710 99.7238   9
  -5   7 -14 33815.0 711.899  12
  -5  -7 -14 32831.8 936.826   7
  -5  -7 -14 32327.2 985.736   6
  -5  -7 -15 2740.86 274.972   7
  -5   7 -15 2455.14 173.571  12
  -5  -7 -16 1095.17 136.577   7
  -5   8  16 372.177 55.1492   5
   5   8 -15 51934.3 636.522   9
   5  -8 -15 52391.5 679.038   6
   5   8 -14 13993.9 390.218  13
   5  -8 -14 14477.0 462.511   6
   5   8 -14 14004.6 390.412   9
   5   8 -13 1821.71 167.640   9
   5   8 -13 1963.64 175.962  13
   5   8 -12 7202.89 359.917   9
   5   8 -12 7185.74 361.282  13
  -5   8  12 7590.40 470.754  13
   5   8 -11 53374.1 1042.85   9
   5   8 -11 55475.1 1101.69  13
  -5  -8  10 235.509 123.931  20
   5   8 -10 116.781 130.766   9
   5   8 -10 229.448 126.417  13
   5   8  -9 64948.8 1341.12   9
   5   8  -9 67126.2 1554.80  13
   5   8  -8 10476.8 647.145  13
   5   8  -8 10607.5 950.407  18
  -5  -8   8 10013.3 651.513  20
   5   8  -8 10530.5 573.790   9
   5  -8  -8 9267.44 1211.10  16
  -5   8   7 210.205 177.646   2
  -5  -8   7-91.7398 244.582  19
   5   8  -7 157.580 122.311  13
  -5  -8   7 47.8931 152.963  20
  -5  -8   6 19590.8 1499.58  19
  -5  -8   6 18975.3 795.753  20
   5   8  -6 18757.5 1691.04  18
  -5   8   6 18013.9 1786.99   2
   5   8  -6 18383.6 729.615  13
   5  -8  -6 16354.7 1602.95  16
   5   8  -5 190429. 2176.84  13
   5   8  -5 192175. 4984.06  18
   5  -8  -5 199926. 6058.43   3
  -5   8   5 204747. 6869.39   2
  -5  -8   5 192844. 4279.03  19
  -5  -8   5 180899. 2306.09  20
   5   8  -4 385.447 123.747  13
  -5   8   4 493.800 288.992   2
   5   8  -4 154.848 178.449  18
  -5  -8   4 88.8020 149.829  19
  -5  -8   4 276.493 123.733  20
  -5   8   3 81051.1 1554.23  13
  -5   8   3 81079.9 2034.98   1
   5   8  -3 81798.8 2592.06  18
  -5   8   3 84916.9 1967.04   5
   5  -8  -3 85765.2 3488.94   3
  -5  -8   3 78528.9 2488.38  19
  -5  -8   3 81203.0 1442.17  20
  -5   8   2 19509.1 1014.99   1
  -5   8   2 22306.7 1827.47   2
   5  -8  -2 21059.5 1610.61   3
  -5  -8   2 21720.9 1269.13  19
   5   8  -2 21272.1 1233.65  18
  -5   8   1 16046.0 937.343   1
   5  -8  -1 18106.5 1418.25   3
  -5  -8   1 15892.6 1071.69  19
   5   8  -1 17606.9 1090.83  18
   5  -8   0-99.3075 153.895   3
  -5   8   0 139.698 136.057   1
   5   8   0 306.829 170.558  18
  -5  -8   0 237.517 179.616  19
  -5   8  -1 87315.2 2319.70   1
   5  -8   1 92801.6 2923.30   3
  -5  -8  -1 88203.1 2495.02  19
   5   8   1 89950.3 2432.86  18
  -5   8  -2 4121.10 534.130   1
   5   8   2 3658.27 515.138  18
   5  -8   2 3479.79 528.817  19
   5  -8   2 3575.31 584.536   3
  -5  -8  -2 3840.94 531.589  19
  -5  -8  -3 80952.6 2419.17  19
  -5   8  -3 81896.2 1423.68   5
  -5   8  -3 80374.9 2361.56   1
   5   8   3 82654.6 2427.00  18
   5  -8   3 84107.0 2455.16  19
   5  -8   3 83551.2 2664.86   3
  -5  -8  -3 83731.2 1289.65   7
   5  -8   4 78910.6 2606.23  17
  -5  -8  -4 75254.2 1229.29   7
  -5  -8  -4 71615.4 1165.33   6
  -5   8  -4 74928.9 1232.25  13
  -5   8  -4 71288.4 2311.33   1
   5   8   4 75327.8 2371.22  18
  -5   8  -4 71065.3 1342.23   5
   5  -8   4 73379.8 1259.98  20
  -5  -8  -4 73407.9 2337.92  19
   5  -8   4 75779.5 2488.10   3
   5  -8   5 103.576 207.639  17
  -5  -8  -5 465.325 116.412   7
  -5   8  -5 411.676 95.9477  13
   5  -8   5 311.895 91.6801  20
  -5   8  -5 795.604 162.663   5
  -5   8  -5 422.005 223.568   1
   5  -8   5 356.854 200.659   3
  -5   8  -5 812.447 444.336   4
   5   8   5 249.644 171.630  18
   5   8   6 41314.1 1863.45  18
  -5   8  -6 40968.3 935.659  15
  -5  -8  -6 42255.7 976.168   7
   5  -8   6 43154.3 946.120  20
  -5  -8  -6 41252.3 951.488   6
  -5   8  -6 41190.5 1069.52   5
   5  -8   6 43112.9 2013.65  17
  -5   8  -6 39849.3 1880.31   1
  -5   8  -6 42229.5 2897.74   4
   5  -8   6 42838.3 1813.40   3
   5   8   7 160362. 3762.83  18
   5  -8   7 159076. 3894.36  17
  -5   8  -7 163396. 1821.91  15
  -5  -8  -7 160090. 1937.44   7
  -5   8  -7 160357. 5253.16   4
  -5   8  -7 160528. 2191.53   5
  -5  -8  -7 153775. 1897.01   6
   5  -8   7 156484. 1763.27  20
  -5   8  -7 156529. 3895.61   1
  -5  -8  -8 3850.56 322.459   7
  -5  -8  -8 4014.90 329.860   6
  -5   8  -8 4160.07 292.030  15
  -5   8  -8 4020.09 378.923   5
  -5   8  -8 4010.49 326.773  12
  -5   8  -8 4021.12 321.451   9
  -5   8  -9 22136.5 710.766  12
  -5   8  -9 19376.9 860.310   5
  -5  -8  -9 19721.9 714.732   7
  -5  -8  -9 20469.1 734.557   6
  -5   8  -9 20837.5 696.288   9
  -5   8 -10 9962.24 464.072  12
  -5   8 -10 9420.55 635.718   5
  -5  -8 -10 9873.80 516.699   7
  -5  -8 -10 9824.98 524.273   6
  -5   8 -10 9771.81 478.624   9
  -5   8 -11 16166.2 558.227  12
  -5   8 -11 16333.9 861.529   5
  -5  -8 -11 16087.8 659.262   7
  -5  -8 -11 16724.9 679.497   6
  -5   8 -11 17006.7 622.593   9
  -5   8 -12 5698.06 369.475   9
  -5  -8 -12 6341.64 417.548   7
  -5  -8 -12 6088.37 416.275   6
  -5   8 -12 5796.48 325.172  12
  -5   8 -13 33600.8 885.168   9
  -5  -8 -13 34208.6 984.801   6
  -5  -8 -13 35786.0 968.549   7
  -5   8 -13 35165.7 721.820  12
  -5   8 -14 1837.82 180.311   9
  -5   8 -14 1890.49 157.990  12
  -5  -8 -14 1943.50 235.217   7
  -5  -8 -14 1925.54 243.630   6
  -5  -8 -15 22270.8 676.819   7
   5   9 -15 6168.09 180.787   9
  -5   9  15 6112.76 213.319   5
   5   9 -14 11971.6 325.626  13
  -5   9  14 12119.9 372.140   5
   5  -9 -14 12380.7 385.359   6
   5   9 -14 12488.2 318.415   9
   5   9 -13 14835.7 423.018  13
   5   9 -13 14692.0 401.893   9
  -5   9  12 14884.4 580.669  13
   5   9 -12 14010.6 471.268  13
   5   9 -12 14081.8 441.296   9
  -5   9  11 2890.39 334.174  13
   5   9 -11 2996.03 262.404  13
   5   9 -11 2589.53 218.821   9
  -5  -9  10 64627.0 1326.28  20
  -5   9  10 64056.5 1794.01  13
   5   9 -10 64654.7 1305.24  13
   5   9 -10 64091.8 1142.98   9
  -5  -9   9 8568.83 573.953  20
  -5   9   9 8150.45 794.943  13
   5   9  -9 8074.45 543.935  13
   5   9  -9 8333.97 450.857   9
  -5  -9   8 21879.4 962.466  20
   5   9  -8 19875.6 889.449  13
   5   9  -8 21254.0 762.984   9
   5   9  -7 13982.3 695.250  13
  -5   9   7 15058.4 1009.99  13
  -5  -9   7 14684.4 761.037  20
  -5  -9   6 40449.1 2231.99  19
  -5  -9   6 42060.7 1205.00  20
   5   9  -6 38695.6 1082.20  13
  -5   9   6 43517.8 1532.55  13
   5   9  -6 38228.0 2392.66  18
  -5   9   6 37735.1 2818.72   2
   5  -9  -6 34469.2 2586.23  16
  -5  -9   5 9780.66 1018.22  19
  -5  -9   5 10056.4 571.312  20
  -5   9   5 10135.4 922.839   5
   5   9  -5 9897.73 517.962  13
  -5   9   5 9482.27 652.448  13
  -5   9   5 10224.9 1704.75   2
   5  -9  -5 8325.39 1345.30  16
   5  -9  -5 8331.86 1251.84   3
   5   9  -5 9969.51 1220.15  18
  -5  -9   4 148058. 3751.55  19
  -5  -9   4 151254. 2110.61  20
  -5   9   4 155261. 3109.75   5
   5   9  -4 144295. 4025.10  18
   5   9  -4 158290. 1927.60  13
  -5   9   4 141392. 2300.52  13
   5  -9  -4 156579. 5394.42   3
  -5   9   4 155338. 6390.85   2
   5   9  -3 61319.2 1150.67  13
  -5   9   3 59665.3 1393.09  13
   5   9  -3 57434.5 2333.08  18
  -5   9   3 62560.1 1776.47   5
  -5   9   3 57503.7 3431.37   2
   5  -9  -3 63502.9 3224.15   3
  -5  -9   3 57972.7 2259.35  19
  -5  -9   3 57809.1 1278.95  20
   5   9  -2 11899.3 490.009  13
  -5   9   2 12215.9 600.983  13
  -5   9   2 10589.2 782.806   1
   5   9  -2 11316.7 971.293  18
  -5   9   2 11272.1 691.366   5
   5  -9  -2 13552.6 1400.71   3
  -5  -9   2 11444.2 984.520  19
  -5  -9   2 12467.4 588.422  20
  -5   9   1 41324.2 1065.20  13
  -5   9   1 41327.8 1582.36   1
   5   9  -1 39774.8 1746.04  18
  -5   9   1 43766.0 1257.75   5
   5  -9  -1 41212.1 2272.33   3
  -5  -9   1 44954.2 1914.92  19
  -5  -9   1 41658.7 1066.96  20
  -5   9   0 70690.1 1341.74  13
  -5   9   0 69595.8 2111.31   1
   5   9   0 70577.4 2297.31  18
  -5   9   0 71513.5 1518.74   5
   5  -9   0 70990.3 2838.02   3
  -5  -9   0 72044.5 2418.08  19
  -5  -9   0 69379.3 1387.93  20
  -5   9  -1 4937.43 353.826  13
  -5   9  -1 4615.09 578.553   1
   5   9   1 4681.53 602.994  18
   5  -9   1 4958.98 685.848  19
  -5   9  -1 5187.24 398.015   5
   5  -9   1 5073.62 745.099   3
  -5  -9  -1 6201.16 713.571  19
  -5  -9  -2 155853. 1626.98   6
  -5   9  -2 148586. 1878.96  13
  -5   9  -2 148618. 3293.18   1
   5   9   2 151071. 3413.55  18
   5  -9   2 165003. 3791.95  19
  -5   9  -2 153359. 2073.34   5
  -5  -9  -2 166259. 3666.00  19
   5  -9   2 151685. 3905.93   3
   5  -9   3 2078.94 468.693  17
  -5  -9  -3 2345.96 240.024   7
  -5  -9  -3 2436.10 219.754   6
  -5   9  -3 2486.53 243.694  13
  -5   9  -3 2518.60 453.151   1
   5   9   3 2206.19 437.642  18
  -5  -9  -3 2623.99 482.286  19
   5  -9   3 1831.94 385.035  19
  -5   9  -3 2269.58 259.534   5
   5  -9   3 2247.41 247.568  20
   5  -9   3 2464.53 498.860   3
   5  -9   4 21801.9 1439.53  17
  -5  -9  -4 24514.4 693.839   6
  -5  -9  -4 24340.4 738.068   7
  -5   9  -4 23550.2 720.306  13
  -5   9  -4 23451.5 1400.15   1
   5   9   4 24766.2 1431.50  18
  -5   9  -4 23549.1 809.778   5
   5  -9   4 24282.5 754.282  20
  -5  -9  -4 24208.3 1446.84  19
   5  -9   4 24906.4 1523.05   3
   5  -9   5 7085.15 851.023  17
  -5  -9  -5 6991.29 408.309   7
  -5  -9  -5 6939.15 387.953   6
  -5   9  -5 6759.15 385.158  13
  -5   9  -5 6784.59 791.494   1
   5   9   5 7463.32 808.829  18
  -5   9  -5 6811.21 446.788   5
   5  -9   5 6717.17 398.690  20
  -5   9  -5 7955.94 1359.75   4
   5  -9   5 6333.75 740.548   3
   5  -9   6 116594. 1610.45  20
  -5   9  -6 123531. 1901.66   5
  -5   9  -6 117084. 3335.78   1
   5   9   6 120429. 3304.84  18
  -5   9  -6 113081. 1549.07  15
  -5   9  -6 116230. 1545.35  13
  -5   9  -6 125595. 5120.89   4
   5  -9   6 119005. 3204.89   3
  -5  -9  -6 118557. 1672.98   7
  -5  -9  -6 124796. 1668.91   6
   5  -9   6 114585. 3339.23  17
  -5   9  -7 14343.8 677.288   5
   5  -9   7 15390.4 571.754  20
  -5   9  -7 15394.9 622.388  12
  -5  -9  -7 14996.7 604.196   6
  -5  -9  -7 15246.8 616.648   7
  -5   9  -8 54155.7 1123.78  12
  -5   9  -8 55332.1 1146.05   9
  -5   9  -8 53536.2 1350.61   5
   5  -9   8 56402.0 1040.59  20
  -5  -9  -8 54140.0 1168.42   7
  -5  -9  -8 55655.6 1168.23   6
  -5   9  -9 20941.3 698.688   9
  -5   9  -9 19838.3 864.776   5
  -5  -9  -9 20039.9 714.965   6
  -5  -9  -9 20751.9 734.629   7
  -5   9  -9 21566.0 680.872  12
  -5   9 -10 4096.57 311.735   9
  -5   9 -10 3558.57 389.573   5
  -5  -9 -10 3453.96 308.504   6
  -5  -9 -10 3748.57 325.856   7
  -5   9 -10 3652.23 274.600  12
  -5   9 -11 4737.30 327.332   9
  -5   9 -11 4861.71 450.728   5
  -5  -9 -11 5009.02 364.397   6
  -5  -9 -11 4772.79 361.572   7
  -5   9 -11 4855.25 294.056  12
  -5   9 -12 26045.4 741.551   9
  -5  -9 -12 27933.9 841.449   7
  -5  -9 -12 26793.3 824.256   6
  -5   9 -12 26879.3 615.314  12
  -5   9 -13 4022.07 297.512   9
  -5  -9 -13 4164.30 335.128   6
  -5  -9 -13 3863.26 322.449   7
  -5   9 -13 3647.44 209.569  12
  -5  -9 -14 31423.9 776.145   6
  -5  -9 -14 32387.3 845.349   7
   5  10 -14 14030.1 297.418  13
  -5  10  14 13628.0 334.016   5
   5 -10 -14 14337.8 345.504   6
   5  10 -13 467.127 72.3429   9
   5  10 -13 552.592 83.4465  13
   5 -10 -13 576.570 107.854   6
  -5  10  13 587.824 94.4304   5
  -5  10  12 4273.34 270.708   5
   5  10 -12 4249.81 241.353  13
   5  10 -12 4578.51 220.258   9
  -5  10  11 42407.5 935.240   5
   5  10 -11 43522.0 745.809   9
  -5  10  11 43024.1 1055.36  13
   5  10 -11 43265.4 866.338  13
  -5  10  10 978.866 186.567   5
   5  10 -10 1098.88 143.614   9
  -5 -10  10 1027.45 179.164  20
  -5  10  10 942.953 233.653  13
   5  10 -10 918.888 169.521  13
  -5  10   9 47451.4 1203.26   5
   5  10  -9 47782.9 941.860   9
  -5  10   9 49593.6 1778.01  13
   5  10  -9 48747.9 1241.72  13
  -5 -10   9 48094.2 1257.71  20
  -5  10   8 10355.6 628.867   5
   5  10  -8 10245.5 637.847  13
  -5  10   8 11822.5 990.536  13
  -5 -10   8 9813.98 660.255  20
  -5  10   7 419.903 180.018   5
  -5  10   7 387.555 245.727  13
   5  10  -7 47.3522 123.056  13
  -5 -10   7 106.171 144.067  20
  -5  10   6 34232.2 1414.67   5
   5  10  -6 37231.2 1082.07  13
  -5  10   6 41432.3 1509.51  13
  -5 -10   6 38599.9 1191.21  20
  -5  10   5 64939.9 2312.92   5
  -5 -10   5 60816.7 1440.58  20
   5  10  -5 62628.6 1326.92  13
  -5  10   5 58758.9 1650.61  13
  -5 -10   4 4097.97 373.010  20
  -5  10   4 4048.12 550.660   5
   5 -10  -4 6147.21 1121.36   3
   5  10  -4 4619.39 795.240  18
  -5 -10   4 4067.21 676.875  19
   5  10  -4 4407.76 343.273  13
  -5  10   4 4578.43 432.993  13
  -5 -10   3 96773.4 3070.31  19
  -5 -10   3 91462.5 1681.58  20
  -5  10   3 96774.0 2302.32   5
   5 -10  -3 90190.3 4106.40   3
   5  10  -3 92237.0 3137.34  18
   5 -10  -3 95393.8 3786.22  19
   5  10  -3 93560.9 1475.03  13
  -5  10   3 89184.4 1766.65  13
  -5 -10   2 18131.5 1305.55  19
  -5 -10   2 17978.0 743.746  20
  -5  10   2 20648.5 981.434   5
   5 -10  -2 20153.6 1794.50   3
   5  10  -2 18912.4 1347.23  18
   5 -10  -2 19785.7 1632.43  19
   5  10  -2 19096.1 647.338  13
  -5  10   2 18043.5 763.657  13
  -5  10   1 12023.3 600.311  13
  -5 -10   1 11598.8 1028.54  19
  -5 -10   1 11334.9 592.539  20
  -5  10   1 11966.0 701.335   5
  -5  10   1 12084.7 907.031   1
   5  10  -1 11951.4 1019.89  18
   5 -10  -1 10569.5 1136.71  19
   5 -10  -1 11803.0 1327.19   3
  -5  10   0 1052.35 195.167  13
  -5 -10   0 1211.15 210.124  20
  -5  10   0 840.493 183.840   5
  -5  10   0 1128.51 303.264   1
   5  10   0 975.559 327.210  18
  -5 -10   0 1588.87 409.943  19
   5 -10   0 1006.66 364.070  19
   5 -10   0 723.737 309.610   3
  -5  10  -1 155023. 2039.65  13
   5 -10   1 160880. 4083.11  19
   5 -10   1 154363. 2049.28  20
  -5 -10  -1 164456. 3865.99  19
  -5  10  -1 162964. 2313.42   5
   5 -10   1 158296. 4369.59   3
   5  10   1 159291. 3648.96  18
  -5  10  -1 154450. 3393.26   1
   5 -10   2 5300.22 789.418   3
  -5  10  -2 4557.49 347.911  13
   5 -10   2 4981.53 370.679  20
  -5 -10  -2 4875.41 683.188  19
  -5  10  -2 4985.98 398.818   5
  -5 -10  -2 4880.37 298.127   6
   5  10   2 4451.82 624.389  18
   5 -10   2 4547.02 659.433  19
  -5  10  -2 4351.62 602.965   1
   5 -10   3 53425.8 2397.96   3
  -5 -10  -3 52139.8 986.004   6
   5  10   3 52595.7 2137.70  18
  -5  10  -3 51470.6 1245.62   5
  -5  10  -3 51475.6 2090.89   1
  -5  10  -3 50523.5 1114.21  13
   5 -10   3 52837.4 1158.53  20
  -5 -10  -3 52068.4 2198.51  19
  -5 -10  -4 23717.7 690.206   6
  -5 -10  -4 24410.8 774.737   7
  -5  10  -4 24145.4 756.867  13
   5 -10   4 23630.1 763.356  20
  -5  10  -4 23465.5 837.142   5
  -5 -10  -5 7729.77 410.629   6
  -5 -10  -5 7571.16 437.783   7
  -5  10  -5 8174.32 433.563  13
   5 -10   5 7707.87 433.995  20
  -5  10  -5 8132.58 500.797   5
  -5 -10  -6 63962.9 1185.04   6
  -5 -10  -6 64212.0 1259.76   7
  -5  10  -6 62939.6 1383.68   5
   5 -10   6 60977.1 1172.12  20
  -5  10  -6 62376.0 1152.51  13
  -5  10  -7 96312.2 1400.92  13
  -5  10  -7 101682. 1543.05  12
   5 -10   7 97475.1 1431.62  20
  -5  10  -7 93888.7 1727.55   5
  -5  10  -7 100897. 1567.80   9
  -5 -10  -7 96928.7 1482.20   6
  -5 -10  -7 95990.9 1551.39   7
  -5  10  -8 93.3092 105.644  12
   5 -10   8-24.1284 115.797  20
  -5 -10  -8 52.1675 97.2329   6
  -5  10  -8 181.861 127.579   5
  -5  10  -8-14.1834 110.624   9
  -5 -10  -8-54.5151 104.756   7
  -5  10  -9 25774.4 703.148  12
   5 -10   9 24941.6 644.006  20
  -5  10  -9 25640.7 948.023   5
  -5  10  -9 26170.4 759.971   9
  -5 -10  -9 25092.7 770.343   6
  -5 -10  -9 25379.8 800.836   7
  -5  10 -10 21990.8 892.103   5
  -5  10 -10 22022.3 677.892   9
  -5 -10 -10 21723.1 712.789   6
  -5 -10 -10 21398.1 735.279   7
  -5  10 -10 21508.9 596.080  12
  -5  10 -11 4836.32 422.034   5
  -5  10 -11 5189.40 326.566   9
  -5 -10 -11 5247.00 356.121   6
  -5 -10 -11 5708.71 387.436   7
  -5  10 -11 4980.72 264.753  12
  -5 -10 -12 7420.71 431.558   7
  -5 -10 -12 6766.25 396.109   6
  -5  10 -12 7351.52 379.020   9
  -5 -10 -13 37989.9 902.466   6
  -5  10 -13 36717.1 800.348   9
   5  11 -13 8409.52 237.753  13
  -5  11  13 8681.50 271.307   5
   5 -11 -13 9177.95 293.561   6
   5  11 -12 1567.77 131.803  13
   5 -11 -12 1794.96 173.289   6
  -5  11  12 1451.82 143.728   5
   5  11 -11 395.168 97.2009  13
  -5  11  11 569.068 121.176  13
   5 -11 -11 758.074 155.050   6
  -5  11  11 509.113 119.831   5
  -5  11  10 62649.3 1333.37  13
   5  11 -10 64813.0 1089.56  13
  -5  11  10 66498.9 1190.74   5
  -5  11   9 8144.57 621.532  13
   5  11  -9 8286.36 463.139  13
  -5  11   9 7919.16 468.996   5
  -5 -11   9 7461.17 451.892  20
  -5  11   8 6837.58 771.542  13
   5  11  -8 5829.23 462.637  13
  -5  11   8 5604.85 446.096   5
  -5 -11   8 5866.83 484.568  20
   5  11  -7 30929.6 1033.16  13
  -5  11   7 30425.2 1125.12   5
  -5 -11   7 30654.0 1097.20  20
   5  11  -6 40141.6 1124.85  13
  -5  11   6 37522.2 1416.54   5
  -5 -11   6 39534.8 1218.35  20
  -5  11   5 251.394 189.714  13
   5  11  -5 18.3651 116.263  13
  -5  11   5 60.2551 223.629   5
   5 -11  -5 107.430 145.140  20
  -5 -11   5 11.9454 142.326  20
   5  11  -4 73918.5 1402.31  13
  -5  11   4 76125.7 1766.53  13
  -5  11   4 79415.1 2335.91   5
   5 -11  -4 76572.7 1766.13  20
  -5 -11   4 74978.1 1617.68  20
   5  11  -3 21329.9 727.696  13
  -5  11   3 19790.0 859.521  13
  -5  11   3 23338.2 1166.36   5
   5 -11  -3 20938.8 880.232  20
  -5 -11   3 21557.0 858.065  20
   5  11  -2 20976.9 697.016  13
  -5  11   2 21045.5 844.563  13
  -5  11   2 22704.2 1069.10   5
   5 -11  -2 21098.5 843.520  20
  -5 -11   2 19435.4 821.528  20
  -5  11   1 42532.7 1156.09  13
  -5  11   1 45802.7 1416.65   5
   5 -11  -1 44508.7 1184.39  20
  -5 -11   1 45826.7 1230.47  20
  -5  11   0 35840.1 1032.43  13
  -5  11   0 38912.9 1226.43   5
   5 -11   0 38182.2 1067.24  20
  -5 -11   0 34458.9 1089.45  20
  -5  11  -1 8089.72 483.046  13
  -5  11  -1 8807.30 565.310   5
   5 -11   1 8220.93 487.357  20
  -5  11  -2 118367. 1769.58  13
  -5  11  -2 114322. 1952.16   5
   5 -11   2 117739. 1785.74  20
  -5  11  -3 1250.08 189.164  13
   5 -11   3 751.738 165.944  20
  -5  11  -3 689.075 177.813   5
  -5 -11  -3 806.363 140.303   6
  -5  11  -4 3916.39 360.190   5
  -5 -11  -4 3295.24 258.110   6
  -5  11  -4 3679.97 306.186  13
   5 -11   4 3265.92 291.049  20
  -5  11  -5 16425.2 714.891   5
  -5 -11  -5 15967.2 566.191   6
   5 -11   5 15933.7 619.241  20
  -5  11  -5 16980.2 622.739  13
  -5  11  -6 39098.1 911.302  13
  -5 -11  -6 40554.5 911.769   6
  -5  11  -6 42247.0 1130.13   5
  -5  11  -6 40507.6 994.086   9
   5 -11   6 39785.1 936.568  20
  -5  11  -7 1102.15 156.940  13
  -5  11  -7 1387.63 192.774  12
   5 -11   7 1484.39 182.105  20
  -5  11  -7 1279.28 219.234   5
  -5  11  -7 1299.34 191.746   9
  -5 -11  -7 1337.16 185.502   6
  -5 -11  -7 1271.44 198.144   7
  -5  11  -8 55955.5 1009.75  12
   5 -11   8 55030.6 997.906  20
  -5  11  -8 55494.3 1316.67   5
  -5  11  -8 56355.9 1100.41   9
  -5 -11  -8 53041.0 1049.11   6
  -5 -11  -8 54831.0 1171.48   7
  -5  11  -9 11946.0 431.133  12
   5 -11   9 11468.8 425.619  20
  -5  11  -9 11799.3 622.390   5
  -5  11  -9 12099.6 501.290   9
  -5 -11  -9 11869.2 546.776   7
  -5 -11  -9 11541.1 494.357   6
  -5  11 -10 4358.06 381.422   5
  -5  11 -10 4918.95 312.782   9
  -5 -11 -10 4759.91 318.559   6
  -5 -11 -10 4684.09 355.490   7
  -5  11 -10 4724.56 248.768  12
  -5 -11 -11 13772.1 525.282   6
  -5 -11 -11 14270.3 577.289   7
  -5  11 -11 13889.9 494.408   9
  -5 -11 -12 27012.1 719.909   6
  -5  11 -12 25816.1 651.582   9
  -5 -11 -13 3506.53 244.336   6
   5  12 -12 8885.50 241.585  13
   5 -12 -12 9232.08 289.272   6
  -5  12  12 8789.56 266.234   5
  -5  12  11 32874.3 628.275   5
   5 -12 -11 32082.8 676.860   6
   5  12 -11 31202.0 543.499  13
  -5  12  10 455.055 113.454   5
   5 -12 -10 713.277 149.347   6
   5  12 -10 373.796 92.8943  13
  -5  12  10 573.399 111.193  13
  -5 -12   9 46346.4 935.693  20
   5 -12  -9 43419.2 1102.93   6
  -5  12   9 46143.9 989.996   5
  -5  12   9 42799.7 1095.06  13
   5  12  -9 47268.3 923.475  13
  -5 -12   8 20386.6 727.872  20
  -5  12   8 19720.6 734.617   5
  -5  12   8 18786.2 945.427  13
   5  12  -8 19197.9 695.359  13
  -5 -12   7 3462.67 365.648  20
  -5  12   7 3323.29 354.939   5
   5  12  -7 3574.10 351.679  13
  -5  12   7 3395.56 478.712  13
  -5 -12   6 8343.55 569.334  20
  -5  12   6 7887.75 602.954   5
   5  12  -6 7607.81 495.838  13
  -5  12   6 8770.56 703.449  13
   5 -12  -5 47599.5 1437.45  20
  -5 -12   5 44979.6 1285.40  20
  -5  12   5 42561.3 1585.02   5
   5  12  -5 44429.5 1129.12  13
   5 -12  -4 804.450 216.485  20
  -5 -12   4 651.079 186.634  20
  -5  12   4 661.629 276.486   5
  -5  12   4 719.338 212.145  13
   5  12  -4 754.585 163.612  13
   5 -12  -3 16357.0 789.558  20
  -5 -12   3 14528.9 722.361  20
  -5  12   3 16193.3 979.272   5
  -5  12   3 15980.9 774.218  13
   5  12  -3 16940.0 659.142  13
   5 -12  -2 15878.0 746.927  20
  -5 -12   2 13876.8 701.537  20
  -5  12   2 15662.2 898.130   5
  -5  12   2 14868.4 715.812  13
   5  12  -2 15193.4 603.004  13
   5 -12  -1 1134.90 212.349  20
  -5 -12   1 1367.18 243.381  20
  -5  12   1 860.519 210.598   5
  -5  12   1 1005.77 191.263  13
   5 -12   0 10866.3 575.266  20
  -5 -12   0 10767.2 624.797  20
  -5  12   0 11575.2 690.679   5
  -5  12   0 11583.7 590.601  13
   5 -12   1 73934.3 1450.53  20
  -5  12  -1 71169.5 1409.14  13
   5 -12   2 5401.48 391.465  20
  -5  12  -2 5329.71 434.914   5
  -5  12  -2 5134.21 378.348  13
   5 -12   3 32809.2 914.652  20
  -5  12  -3 31586.2 1007.70   5
  -5  12  -3 31269.8 884.599  13
  -5  12  -4 33282.1 881.643  13
  -5 -12  -4 32711.2 746.964   6
   5 -12   4 33741.4 897.232  20
  -5  12  -4 32687.3 1005.04   5
  -5  12  -5 13810.2 548.760  13
  -5  12  -5 14051.3 648.660   5
   5 -12   5 15300.0 588.221  20
  -5 -12  -5 14491.2 505.502   6
  -5 -12  -6 13996.7 501.686   6
  -5  12  -6 14762.7 551.247  12
  -5  12  -6 14432.3 540.063  13
  -5  12  -6 15299.2 671.111   5
  -5  12  -6 15407.5 585.943   9
   5 -12   6 14587.6 545.334  20
  -5 -12  -7 40916.3 853.559   6
  -5  12  -7 42364.2 857.932  12
  -5  12  -7 41500.1 885.535  13
  -5  12  -7 43750.2 1129.18   5
  -5  12  -7 43801.6 943.095   9
   5 -12   7 41037.2 863.975  20
  -5 -12  -8 2968.50 237.741   6
  -5  12  -8 2743.93 206.660  12
  -5  12  -8 2778.84 230.595  13
  -5  12  -8 2915.94 305.707   5
  -5  12  -8 3155.67 251.844   9
   5 -12   8 2967.06 225.074  20
  -5  12  -9 19090.2 455.481  12
  -5  12  -9 18164.9 717.800   5
   5 -12   9 18587.6 506.353  20
  -5 -12  -9 18265.4 556.649   6
  -5  12  -9 18947.1 574.805   9
  -5  12 -10 11361.5 431.442   9
  -5 -12 -10 11101.8 435.242   6
  -5  12 -10 11092.9 541.752   5
  -5 -12 -11 1342.23 161.798   6
  -5  12 -11 1195.51 146.455   9
   5  13 -10 27107.6 476.152  13
   5 -13 -10 27715.6 564.506   6
  -5  13   9 15517.6 451.444  13
   5  13  -9 15714.2 429.856  13
  -5  13   9 15259.5 480.560   5
   5 -13  -9 16064.5 524.837   6
  -5  13   8 5625.61 377.406  13
   5  13  -8 5834.52 308.560  13
  -5 -13   8 6052.15 325.683  20
  -5  13   8 5921.55 349.808   5
   5 -13  -8 5584.76 374.107   6
  -5  13   7 16475.5 840.198  13
   5  13  -7 16933.2 608.225  13
  -5 -13   7 17376.4 626.798  20
   5 -13  -7 15100.9 711.094   6
  -5  13   7 16491.3 655.164   5
   5  13  -6 20810.3 781.549  13
  -5 -13   6 20197.8 757.132  20
   5 -13  -6 18527.3 824.863   6
  -5  13   6 19073.2 797.433   5
  -5  13   5 1594.38 295.611  13
   5  13  -5 1373.73 210.411  13
  -5 -13   5 1514.72 262.329  20
  -5  13   5 1311.54 271.913   5
   5  13  -4 58453.7 1231.77  13
  -5  13   4 59508.3 1546.61  13
   5 -13  -4 56581.1 1471.58  20
  -5 -13   4 58746.0 1423.13  20
   5  13  -3 4844.36 349.604  13
  -5  13   3 4874.26 432.463  13
   5 -13  -3 4647.58 424.516  20
  -5 -13   3 4992.16 424.606  20
  -5  13   3 4779.03 532.622   5
   5  13  -2 18690.6 656.007  13
  -5  13   2 19620.6 807.625  13
   5 -13  -2 18574.0 799.592  20
  -5 -13   2 18642.4 806.372  20
  -5  13   2 19560.6 973.939   5
  -5  13   1 35044.9 1031.71  13
   5 -13  -1 34544.3 1041.07  20
  -5 -13   1 32916.1 1069.25  20
  -5  13   1 37004.8 1265.91   5
  -5  13   0 16649.8 689.090  13
   5 -13   0 16860.7 706.959  20
  -5  13   0 17294.9 826.158   5
  -5  13  -1 5044.41 374.550  13
   5 -13   1 4724.41 366.606  20
  -5  13  -1 5325.51 448.192   5
  -5  13  -2 49369.8 1102.60  13
   5 -13   2 50688.7 1131.59  20
  -5  13  -2 53305.5 1322.97   5
  -5  13  -3 3743.62 302.087  13
   5 -13   3 3842.76 313.612  20
  -5  13  -3 4094.30 372.380   5
  -5  13  -4 268.292 97.6909  13
  -5  13  -4 533.521 167.383   5
  -5  13  -4 409.030 130.314   9
   5 -13   4 269.454 95.3261  20
  -5 -13  -5 3260.24 221.414   6
  -5  13  -5 3092.51 249.866  12
  -5  13  -5 3101.62 254.933  13
  -5  13  -5 3186.74 307.316   5
  -5  13  -5 3245.40 272.135   9
   5 -13   5 3286.34 265.587  20
  -5 -13  -6 22753.9 571.701   6
  -5  13  -6 22247.3 593.366  12
  -5  13  -6 22937.1 648.275  13
  -5  13  -6 23758.5 802.710   5
  -5  13  -6 23870.7 666.920   9
   5 -13   6 22869.0 638.744  20
  -5 -13  -7 1813.19 169.255   6
  -5  13  -7 1513.93 146.265  12
  -5  13  -7 1934.21 240.599   5
  -5  13  -7 1859.64 189.561  13
  -5  13  -7 1488.72 172.538   9
   5 -13   7 1524.26 166.400  20
  -5  13  -8 30649.6 877.226   5
   5 -13   8 29552.9 634.547  20
  -5 -13  -8 30629.6 648.490   6
  -5  13  -8 31031.5 694.108   9
  -5 -13  -9 699.536 112.945   6
  -5  13  -9 635.695 147.465   5
  -5  13  -9 619.416 111.014   9
  -5 -13 -10 28.5073 67.4493   6
  -5  13 -10-13.5554 72.4629   9
   5  14  -9 21633.2 359.806  13
  -5  14   9 22115.8 417.418   5
   5  14  -8 22175.9 437.529  13
  -5  14   8 23247.7 522.906   5
  -5  14   7 2157.13 203.864  13
   5  14  -7 1952.08 156.082  13
  -5  14   7 1901.64 185.627   5
  -5  14   6 8181.09 506.990  13
   5  14  -6 9018.93 372.305  13
  -5 -14   6 9536.43 395.843  20
  -5  14   6 9236.43 447.031   5
  -5  14   5 29236.5 1102.64  13
   5  14  -5 28402.5 730.601  13
  -5 -14   5 27729.4 722.786  20
  -5  14   5 26294.3 842.241   5
   5  14  -4 300.431 115.054  13
  -5  14   4 541.020 179.803  13
  -5 -14   4 494.871 127.736  20
   5 -14  -4 627.709 130.147  20
  -5  14   4 380.780 147.760   5
   5  14  -3 26003.5 755.096  13
  -5  14   3 28775.5 986.308  13
   5 -14  -3 24878.3 894.642  20
  -5 -14   3 26189.2 758.302  20
  -5  14   3 28624.6 1154.57   5
  -5  14   2 11578.5 600.825  13
   5 -14  -2 9878.56 557.252  20
  -5 -14   2 9635.79 451.598  20
  -5  14   2 10174.0 668.164   5
  -5  14   1 5155.28 387.695  13
   5 -14  -1 4844.70 382.691  20
  -5 -14   1 4613.80 297.617  20
  -5  14   1 4920.92 449.372   5
  -5  14   0 15491.6 634.828  13
   5 -14   0 14156.1 619.541  20
  -5  14   0 15584.9 743.466   5
  -5  14  -1 38138.1 951.268  13
   5 -14   1 36096.9 948.479  20
  -5  14  -1 37799.8 1103.92   5
  -5  14  -2 2890.82 262.403  13
   5 -14   2 2905.28 270.243  20
  -5  14  -2 3237.83 327.556   5
  -5  14  -3 17459.2 598.858  13
  -5  14  -3 20707.0 761.585   5
  -5  14  -3 19760.3 616.830   9
   5 -14   3 17625.3 608.104  20
  -5  14  -4 19193.5 558.757  12
  -5  14  -4 19084.5 599.701  13
  -5  14  -4 20292.4 728.560   5
  -5  14  -4 19354.0 586.571   9
   5 -14   4 19400.8 602.323  20
  -5  14  -5 4410.94 238.309  12
  -5  14  -5 4572.39 342.115   5
  -5  14  -5 4023.93 270.887  13
  -5  14  -5 4163.32 264.907   9
   5 -14   5 3961.27 265.706  20
  -5  14  -6 10780.8 502.753   5
  -5  14  -6 10784.0 417.658  13
  -5  14  -6 10921.6 405.354   9
   5 -14   6 11209.6 410.874  20
  -5 -14  -7 41374.5 628.718   6
  -5  14  -7 42580.2 761.213   9
   5 -14   7 42394.5 742.269  20
  -5  14  -7 42778.9 960.120   5
  -5  14  -8 322.780 95.1124   5
  -5  14  -8 215.356 74.9190   9
  -5  15   6 7601.77 287.354   5
  -5  15   5 1956.01 191.877  13
  -5  15   5 2038.28 180.920   5
  -5  15   4 34960.0 979.583  13
  -5  15   4 32974.6 777.168   5
   5 -15  -3 9542.64 321.204  20
  -5  15   3 10027.2 486.245   5
  -5  15   2 570.941 144.752  13
   5 -15  -2 629.531 124.346  20
  -5  15   2 671.804 162.019   5
  -5  15   1 26414.7 807.401  13
  -5  15   1 25329.0 689.753   9
   5 -15  -1 23359.5 757.373  20
  -5  15   1 25674.4 900.139   5
  -5  15   0 12385.8 531.556  13
  -5  15   0 12095.0 472.493   9
   5 -15   0 11909.0 531.358  20
  -5  15   0 12148.8 599.818   5
  -5  15  -1 4067.22 298.376  13
  -5  15  -1 3993.84 268.212   9
   5 -15   1 3986.23 305.955  20
  -5  15  -1 4092.56 343.358   5
  -5  15  -2 21369.0 636.460  13
  -5  15  -2 21722.9 735.707   5
  -5  15  -2 20754.4 577.337   9
   5 -15   2 20925.1 639.463  20
  -5  15  -3 5714.21 319.464  13
  -5  15  -3 5277.04 357.978   5
  -5  15  -3 5110.50 278.317   9
   5 -15   3 5544.42 319.050  20
  -5  15  -4 7285.04 401.395   5
  -5  15  -4 7146.33 315.399   9
  -5  15  -4 7281.16 344.903  13
   5 -15   4 7540.44 350.070  20
  -5  15  -5 10407.8 453.319   5
  -5  15  -5 10515.0 361.095   9
  -5  15  -5 10231.5 384.622  13
   5 -15   5 10323.6 380.810  20
   5 -15   6 15502.9 431.246  20
  -5  15  -6 15696.1 508.634   5
  -5  16   2 12758.0 413.981  13
  -5  16   2 13273.4 373.294   5
  -5  16   1 8386.75 398.674  13
  -5  16   1 7432.04 305.519   5
  -5  16   0 6835.90 350.652  13
  -5  16   0 6149.65 294.292   5
  -5  16  -1 11691.3 433.335  13
  -5  16  -1 10404.0 391.709   5
   6   0 -17 24.3750 58.4329   7
   6   0 -17 40.7672 57.4393   9
   6   0 -17-13.6117 64.6401  10
   6   0 -16 169.468 71.9055   7
   6   0 -16 5.13900 73.1838   9
   6   0 -16 74.9887 72.4569  10
   6   0 -15-20.3235 88.9047   9
   6   0 -15-86.2511 97.5599  13
   6   0 -15 50.9261 95.1223  10
   6   0 -14 88588.5 1265.83  13
   6   0 -14 88165.2 1254.02   9
   6   0 -14 86584.2 1442.57  10
   6   0 -13-11.3271 102.919   9
   6   0 -13-19.4096 87.8948  13
   6   0 -13-4.57544 91.5042  10
   6   0 -12 16977.7 589.177  13
   6   0 -12 16891.4 578.603   9
  -6   0  11 148.354 118.761   2
   6   0 -11 24.3936 73.1216   9
   6   0 -11 55.3938 71.5809  13
   6   0 -10 3072.24 243.540   9
  -6   0  10 3529.38 460.283   2
   6   0 -10 2979.16 247.071  13
   6   0 -10 3221.87 514.810  16
  -6   0  10 2764.96 482.856  17
   6   0  -9-61.4079 125.487  18
  -6   0   9 109.503 118.725   2
   6   0  -9-64.2945 98.5776  13
  -6   0   9 6.54331 110.445  17
   6   0  -9 173.666 148.652  16
   6   0  -9 63.0081 76.4745   9
  -6   0   8 225390. 3858.86  17
   6   0  -8 233821. 4050.07  18
  -6   0   8 230662. 3331.51   2
   6   0  -7 13.1131 107.302  18
  -6   0   7-60.4331 99.4210   2
  -6   0   6 140662. 2898.80  17
   6   0  -6 135787. 2332.13   3
  -6   0   6 141631. 2362.35   2
   6   0  -5 50.3344 120.523  18
   6   0  -5 28.6110 82.8226   3
  -6   0   5 47.2603 137.011  17
  -6   0   5 349.404 157.274   2
   6   0  -4 11738.1 747.426  18
   6   0  -4 11771.7 700.362   3
  -6   0   4 12747.0 761.470   1
  -6   0   4 11568.8 669.785   2
   6   0  -3-42.0063 100.333  18
  -6   0   3 28.6566 135.494   1
  -6   0   3 197.983 171.609   2
   6   0  -2 287980. 3582.40  18
  -6   0   2 299616. 2486.47   4
  -6   0   2 295679. 4029.78   2
  -6   0   2 291894. 4023.22   1
   6   0  -1 15.6033 95.3113  18
  -6   0   1 20.4483 95.0195   4
  -6   0   1 148.227 145.735   1
  -6   0   1 47.9454 105.522   2
  -6   0   0 133730. 2195.96   4
  -6   0   0 139600. 3476.28   1
   6   0   1-25.0142 115.680  18
   6   0   1-28.4980 133.373   3
  -6   0  -1 43.2627 127.041   4
  -6   0  -1 21.6143 167.957   1
   6   0   2 32847.5 1244.36  18
   6   0   2 34859.7 1915.69   3
  -6   0  -2 36301.3 1487.91   4
  -6   0  -2 32542.4 1575.74   1
  -6   0  -3 306.341 212.718   4
  -6   0  -3 94.7060 167.245   1
   6   0   4 567327. 6113.94   3
  -6   0  -4 575219. 8375.53   4
  -6   0  -4 559260. 6797.82   1
  -6   0  -5 89.7580 321.892   4
   6   0   5-418.327 175.861   3
  -6   0  -5 39.6741 255.453   1
   6   0   6 326624. 3696.59   3
  -6   0  -6 316302. 6485.88   4
  -6   0  -6 327798. 6072.58   1
  -6   0  -7 457.147 381.446   1
  -6   0  -7 96.1919 194.396   4
   6   0   7 389.333 163.757  17
  -6   0  -8 28379.8 1934.46   4
   6   0   8 27910.5 1296.19  17
  -6   0  -9 88.2791 85.6491  10
  -6   0  -9-263.710 225.093   4
  -6   0  -9 88.2141 121.678  12
  -6   0  -9-32.9630 77.5536  11
  -6   0  -9 10.7295 99.9492  15
  -6   0  -9 133.654 73.7776  14
  -6   0 -10 143378. 1679.94   7
  -6   0 -10 145775. 1809.75  11
  -6   0 -10 136187. 2028.61  12
  -6   0 -10 145612. 1848.25  15
  -6   0 -10 149653. 1874.46  10
  -6   0 -10 154608. 1827.55  14
  -6   0 -10 149009. 4425.14   4
  -6   0 -11 546.123 163.118  12
  -6   0 -11 95.3695 107.669  11
  -6   0 -11 232.034 230.863   4
  -6   0 -11 143.766 108.667  10
  -6   0 -11 51.0187 110.359  15
  -6   0 -11 71.7975 85.3052  14
  -6   0 -11 85.1279 91.4015   7
  -6   0 -12 42434.9 998.274  11
  -6   0 -12 43584.7 1202.36  12
  -6   0 -12 42968.6 1068.47  10
  -6   0 -12 40939.7 1006.67  15
  -6   0 -12 43232.7 969.675   7
  -6   0 -13 157.190 115.664  10
  -6   0 -13-10.9839 122.597  15
  -6   0 -13 40.3185 77.7986   7
  -6   0 -13-97.3208 221.938  12
  -6   0 -14 11458.4 563.880  10
  -6   0 -14 10818.5 477.356   7
  -6   0 -14 10514.7 495.066  15
  -6   0 -14 11242.6 611.051  12
  -6   0 -15 81.4771 103.046  10
  -6   0 -15 125.049 92.0217   7
  -6   0 -16 26139.0 810.433  10
  -6   0 -16 26612.9 806.935  12
  -6   0 -17-112.407 132.582  10
  -6   0 -17 4432.36 299.596  12
   6  -1 -18 144.874 41.9742  10
   6   1 -17 15489.3 410.036  10
   6  -1 -17 15589.6 428.563  10
   6   1 -17 16073.8 387.306   9
   6  -1 -17 16394.5 377.211   7
   6   1 -17 16191.6 406.181   7
   6  -1 -16 7650.55 322.357   9
   6   1 -16 7667.88 313.879   9
   6   1 -16 7663.12 348.551  10
   6  -1 -16 7628.70 356.408  10
   6   1 -16 8013.98 347.046   7
   6  -1 -16 8216.31 330.695   7
   6   1 -16 7500.18 296.121  13
   6  -1 -15 66587.9 1026.58   9
   6   1 -15 63266.6 983.669   9
   6   1 -15 62783.8 1119.11  10
   6  -1 -15 63509.7 1152.16  10
   6  -1 -15 65757.8 1046.44   7
   6   1 -15 63009.5 974.127  13
   6  -1 -15 64388.1 999.257  13
   6   1 -14 64.3564 99.6650  10
   6  -1 -14 71.6949 100.499  10
   6  -1 -14-78.4134 101.970  13
   6   1 -14-33.5977 95.5175  13
   6  -1 -14 54.0779 87.1653   9
   6   1 -14-3.28486 87.3539   9
   6  -1 -13 95743.2 1399.34  13
   6   1 -13 96131.6 1358.11  13
   6   1 -13 97555.6 1345.74   9
   6  -1 -13 96260.3 1368.30   9
   6  -1 -13 95674.7 1594.51  10
   6   1 -13 95035.4 1568.67  10
   6  -1 -12 410.138 116.027   9
   6   1 -12 326.612 105.278   9
   6  -1 -12 209.959 82.9119  13
   6   1 -12 198.423 85.8898  13
  -6   1  11 3261.43 470.386   2
   6   1 -11 3564.12 266.982   9
   6  -1 -11 3262.88 258.384   9
   6  -1 -11 3614.74 283.511  13
   6   1 -11 3251.50 256.207  13
  -6   1  11 3062.23 518.349  17
   6  -1 -11 2940.07 526.386  16
  -6  -1  11 3345.23 542.246  17
  -6  -1  10 8541.18 689.333   2
  -6   1  10 8716.04 741.308   2
   6   1 -10 9016.45 404.734   9
   6  -1 -10 9000.94 416.456   9
   6   1 -10 9089.84 414.817  13
   6  -1 -10 9200.90 439.477  13
   6  -1 -10 8098.09 847.702  16
  -6   1  10 9128.74 845.964  17
  -6  -1  10 8518.02 827.217  17
  -6  -1   9 53931.0 1629.92   2
  -6   1   9 50253.2 1695.68   2
   6   1  -9 49810.3 933.903   9
   6  -1  -9 51179.7 968.843   9
   6  -1  -9 49492.5 1974.74  16
   6   1  -9 50158.9 1892.44  16
  -6   1   9 48958.7 1882.15  17
  -6  -1   9 53950.2 1955.48  17
   6   1  -9 52905.0 1998.34  18
   6  -1  -9 51158.6 1012.37  13
   6   1  -9 52689.5 967.620  13
   6   1  -8 60.4732 143.390  18
  -6   1   8 172.884 141.165  17
  -6  -1   8 180.663 156.958  17
  -6   1   8-11.8129 85.6028   2
  -6  -1   8 227.917 128.322   2
   6   1  -7 214307. 3589.82  18
  -6   1   7 233886. 3916.94  17
  -6  -1   7 215762. 3650.55  17
   6  -1  -7 212806. 3851.66  18
   6   1  -7 217183. 2868.07   3
   6  -1  -7 229926. 3102.57   3
  -6  -1   7 223813. 2944.24   2
  -6   1   7 238808. 3366.71   2
   6   1  -6 1540.21 300.391  18
   6  -1  -6 888.781 253.806  18
   6  -1  -6 1459.93 259.719   3
  -6   1   6 952.307 277.292  17
  -6  -1   6 708.017 228.679  17
  -6   1   6 990.918 218.664   2
  -6  -1   6 1071.79 207.112   2
  -6   1   5 41832.9 1346.38   1
  -6   1   5 38500.4 1324.34   2
  -6  -1   5 39721.6 1121.84   2
   6  -1  -5 36346.5 1297.49   3
   6  -1  -5 35198.5 1404.18  18
   6   1  -5 37871.5 1417.51  18
  -6  -1   5 40764.7 1504.94  17
  -6   1   4 4984.34 502.089   1
  -6   1   4 4175.10 460.150   2
  -6  -1   4 4461.02 378.467   2
   6  -1  -4 3867.46 429.074   3
   6  -1  -4 4440.43 479.433  18
   6   1  -4 4387.62 491.291  18
  -6  -1   4 5332.29 559.274  17
  -6   1   3 266851. 3975.44   1
  -6   1   3 253389. 3899.26   2
  -6  -1   3 250969. 3015.33   2
   6  -1  -3 270874. 3512.19  18
   6   1  -3 265496. 3869.95  18
  -6   1   3 254725. 2253.51   4
   6  -1  -3 270642. 3629.96   3
  -6  -1   2 54004.2 1606.14   1
  -6  -1   2 55289.1 1737.82  19
   6  -1  -2 56195.8 1523.65  18
   6   1  -2 55290.1 1937.27  18
  -6   1   2 57640.2 1212.50   4
  -6   1   2 53118.4 1963.65   2
   6  -1  -2 56262.6 1710.24   3
  -6  -1   2 52670.3 961.226   4
  -6  -1   1 418337. 4657.87   1
  -6   1   1 422553. 5495.41   1
  -6  -1   1 418881. 4749.40  19
  -6   1   1 433190. 4825.02   2
   6  -1  -1 432489. 5056.95   3
  -6  -1   1 390701. 3149.69   4
   6  -1  -1 420969. 4011.82  18
   6   1  -1 393891. 5192.43  18
  -6   1   0 490.828 208.082   1
  -6  -1   0 521.547 203.730   1
   6  -1   0 385.844 121.340  18
   6   1   0 586.474 219.890  18
  -6  -1   0 523.771 204.687  19
   6  -1   0 608.143 246.672   3
  -6  -1   0 524.463 150.487   4
  -6   1   0 325.724 135.732   4
  -6  -1  -1 11039.6 863.387   1
  -6   1  -1 12358.7 848.231   1
  -6  -1  -1 11230.4 785.391  19
   6  -1   1 11448.9 615.147  18
   6   1   1 12206.3 702.132  18
  -6   1  -1 14274.6 841.626   4
   6  -1   1 12103.7 1126.46   3
  -6  -1  -1 10466.8 686.309   4
   6   1   2 9219.81 555.621  18
  -6   1  -2 9354.74 782.980   4
   6  -1   2 8417.33 858.134   3
  -6  -1  -2 9681.38 761.126   4
  -6  -1  -2 8212.36 796.161   1
  -6   1  -2 9259.75 725.183   1
   6   1   3 51728.8 1229.26  18
  -6   1  -3 55519.5 2192.45   4
   6  -1   3 51443.3 1863.84   3
  -6  -1  -3 53696.5 2075.81   4
  -6  -1  -3 48322.6 2057.16   1
  -6   1  -3 49069.0 1677.48   1
   6   1   4 5402.98 388.236  18
  -6  -1  -4 4610.19 707.779   1
  -6   1  -4 5659.19 596.750   1
   6   1   4 5190.46 657.817   3
  -6   1  -4 5299.57 816.007   4
   6  -1   4 5064.77 529.455   3
  -6  -1  -4 5016.03 768.298   4
  -6  -1  -5 226668. 4971.47   1
  -6   1  -5 237327. 4001.36   1
  -6   1  -5 219230. 5504.14   4
   6  -1   5 226664. 3252.38   3
   6   1   5 245892. 3836.02   3
  -6  -1  -5 222569. 5387.73   4
  -6   1  -6 880.190 299.422   1
  -6  -1  -6 407.670 293.910   1
  -6  -1  -6 881.011 237.488  16
  -6  -1  -6 1154.45 423.621   4
  -6   1  -6 1124.10 389.161   4
   6  -1   6 750.468 184.492   3
   6   1   6 797.216 187.084   3
   6   1   7 4103.02 450.732  17
  -6  -1  -7 4144.13 529.760  16
   6  -1   7 3850.62 483.290  17
  -6   1  -7 3674.86 703.548   4
  -6  -1  -7 4112.56 768.994   4
   6  -1   8 4541.14 551.840  17
  -6  -1  -8 4422.80 606.554  16
  -6  -1  -8 3787.72 724.303   4
  -6   1  -8 4630.34 778.076   4
  -6  -1  -9 127800. 1715.08  15
  -6   1  -9 126885. 1663.05  15
  -6  -1  -9 118808. 3206.35  16
  -6  -1  -9 126349. 1620.09  14
  -6   1  -9 129197. 1655.19  14
  -6  -1  -9 126599. 1543.94   7
  -6   1  -9 128111. 1643.02  11
  -6  -1  -9 128416. 1642.51  11
  -6   1  -9 127101. 1828.91  12
  -6  -1  -9 124086. 1951.43  12
  -6   1  -9 126327. 1650.63  10
  -6  -1  -9 125582. 1655.14  10
   6  -1   9 125378. 2961.86  17
  -6  -1  -9 132668. 4251.13   4
  -6   1  -9 128931. 4099.27   4
  -6   1 -10 1047.42 168.548  15
  -6  -1 -10 982.043 153.106  14
  -6   1 -10 1335.82 184.706  14
  -6  -1 -10 1126.37 166.800   7
  -6  -1 -10 1257.03 183.736  11
  -6   1 -10 1430.06 226.343  12
  -6  -1 -10 1034.23 216.706  12
  -6   1 -10 1155.78 173.975  11
  -6   1 -10 1342.63 192.068  10
  -6  -1 -10 1132.07 185.020  10
   6  -1  10 1480.53 538.292   2
  -6  -1 -10 1442.02 437.998   4
  -6   1 -10 1070.61 378.282   4
  -6  -1 -10 1236.77 196.078  15
  -6  -1 -10 1237.08 362.248  16
  -6  -1 -11 108394. 1948.31  12
  -6  -1 -11 110366. 1590.65  11
  -6   1 -11 111994. 1810.07  12
  -6   1 -11 110506. 1591.06  11
  -6  -1 -11 111510. 1547.31  14
  -6   1 -11 105792. 1571.91  14
  -6   1 -11 112905. 1620.27  15
  -6  -1 -11 113976. 1697.83  15
  -6  -1 -11 111253. 1563.83   7
  -6   1 -11 109647. 1665.55  10
  -6  -1 -11 108842. 1664.82  10
  -6  -1 -12 4421.05 330.568  11
  -6   1 -12 4028.90 367.396  12
  -6  -1 -12 4218.35 404.975  12
  -6   1 -12 4148.57 322.828  11
  -6   1 -12 4717.05 363.237  10
  -6  -1 -12 4244.36 347.270  10
  -6  -1 -12 3799.27 324.280  15
  -6   1 -12 4201.37 326.908  15
  -6  -1 -12 4182.31 319.109   7
  -6   1 -13 323.786 119.870  10
  -6  -1 -13 257.270 118.367  10
  -6   1 -13 429.476 119.035  15
  -6  -1 -13 261.957 115.528  15
  -6  -1 -13 277.098 105.313   7
  -6   1 -13 135.931 170.033  12
  -6  -1 -13-132.769 231.654  12
  -6  -1 -14 8477.87 487.751  10
  -6   1 -14 8702.07 492.048  10
  -6  -1 -14 8140.78 429.695   7
  -6  -1 -14 8562.97 474.288  15
  -6   1 -14 7794.44 410.011  15
  -6   1 -14 8406.56 507.479  12
  -6  -1 -14 8010.53 537.112  12
  -6  -1 -15 61090.9 1268.72  10
  -6   1 -15 61025.0 1265.98  10
  -6  -1 -15 59126.2 1094.17   7
  -6   1 -15 58586.7 1023.63  15
  -6   1 -15 58758.1 1262.04  12
  -6  -1 -15 59021.1 1339.49  12
  -6   1 -16 194.166 159.481  12
  -6  -1 -16-32.1793 112.288  10
  -6   1 -16-1.05460 107.750  10
  -6  -1 -16-111.911 119.664   7
  -6   1 -17 22625.0 572.430  12
  -6   1 -17 22633.8 697.501  10
  -6  -1 -17 21535.8 682.680  10
   6   2 -17 2172.03 144.716   9
   6   2 -17 2128.48 145.338  10
   6  -2 -17 2303.23 165.975  10
   6  -2 -17 2357.99 131.790   7
   6   2 -17 2434.47 165.258   7
   6   2 -16 1066.25 135.118  10
   6  -2 -16 886.260 136.704  10
   6   2 -16 873.355 115.041   9
   6  -2 -16 880.127 106.389   7
   6   2 -16 811.416 107.650  13
   6   2 -15 6231.79 348.409  10
   6  -2 -15 6531.19 371.563  10
   6   2 -15 6501.88 316.006   9
   6  -2 -15 6525.59 331.804   9
   6  -2 -15 6584.40 323.438   7
   6   2 -15 6481.46 313.796  13
   6  -2 -14 97792.7 1348.26   9
   6   2 -14 96076.5 1465.51  10
   6  -2 -14 98168.0 1532.73  10
   6   2 -14 98574.6 1278.59   9
   6   2 -14 98476.9 1294.63  13
   6  -2 -14 96391.1 1347.33  13
   6  -2 -14 97135.2 1335.77   7
   6   2 -13 524.954 136.118  10
   6  -2 -13 510.311 147.154  10
   6  -2 -13 556.089 120.641  13
   6   2 -13 462.510 115.388  13
   6  -2 -13 560.541 127.715   9
   6   2 -13 561.324 128.932   9
   6   2 -12 33042.8 799.747  13
   6  -2 -12 34029.2 875.718  13
   6  -2 -12 33160.6 834.656   9
   6   2 -12 32473.1 781.141   9
   6  -2 -12 32861.5 954.502  10
   6   2 -12 33249.4 932.103  10
  -6  -2  11 1219.43 336.575  17
   6  -2 -11 600.977 295.004  16
   6  -2 -11 1393.08 185.685   9
   6   2 -11 1290.01 162.263   9
   6  -2 -11 1392.22 186.036  13
   6   2 -11 1475.52 179.130  13
  -6   2  11 1841.57 350.784   2
  -6   2  10 15274.6 1020.25   2
   6  -2 -10 16843.3 625.045  13
   6   2 -10 15857.6 547.249  13
   6  -2 -10 18227.2 1289.39  16
   6   2 -10 15882.7 541.885   9
   6  -2 -10 16139.6 577.846   9
  -6  -2  10 16258.8 1140.15  17
   6   2 -10 16462.2 1179.55  18
   6   2  -9 1548.26 175.080  13
  -6   2   9 1959.27 365.424   2
   6   2  -9 1605.64 174.674   9
   6  -2  -9 1931.66 208.221   9
   6   2  -9 1541.06 352.811  18
   6  -2  -9 1294.50 374.878  16
  -6  -2   9 1753.87 381.512  17
   6  -2  -9 1563.89 192.448  13
   6   2  -8 152065. 3194.91  18
  -6  -2   8 156626. 3262.65  17
  -6   2   8 153509. 2967.02   2
   6  -2  -7 3688.37 428.313   3
   6   2  -7 3923.68 500.762  18
  -6  -2   7 2711.22 424.449  17
  -6   2   7 3566.45 454.271   2
  -6   2   6 276043. 3829.67   2
   6   2  -6 281063. 4106.96  18
  -6  -2   6 268661. 3944.38  17
  -6   2   5 38201.3 1337.46   1
  -6   2   5 36341.8 1403.98   2
   6  -2  -5 37693.4 1432.74   3
  -6  -2   5 37144.8 1518.97  19
   6   2  -5 36094.5 1492.98  18
  -6  -2   5 37693.3 1420.53  17
   6  -2  -5 40835.6 1686.25  18
  -6   2   4 8672.35 727.557   1
  -6   2   4 9157.30 733.967   2
   6  -2  -4 9107.95 721.243   3
  -6  -2   4 8195.25 741.976  19
   6   2  -4 9311.65 808.031  18
  -6  -2   4 9999.83 734.869  17
   6  -2  -4 8085.20 725.960  18
  -6   2   3 24387.2 1425.55   1
  -6   2   3 21034.4 1279.71   2
   6  -2  -3 23095.1 1194.97   3
  -6  -2   3 22768.0 1255.22  19
   6  -2  -3 21039.7 1119.34  18
   6   2  -3 22262.3 1403.35  18
  -6  -2   3 19992.9 1114.37  17
  -6   2   2 370620. 4924.87   1
  -6   2   2 358083. 5657.55   2
   6  -2  -2 364569. 5079.69   3
  -6  -2   2 377952. 5244.17  19
   6  -2  -2 341752. 4430.10  18
   6   2  -2 339961. 4964.07  18
  -6   2   1 8712.45 702.448   1
  -6  -2   1 9617.52 701.042   1
  -6   2   1 9065.99 577.085   4
   6  -2  -1 8371.28 866.508   3
  -6  -2   1 9153.84 485.233   4
  -6   2   1 8822.13 785.899   2
  -6  -2   1 8825.11 837.367  19
   6  -2  -1 8651.21 702.693  18
   6   2  -1 8145.59 673.909  18
  -6   2   0 161310. 2853.22   1
  -6  -2   0 154075. 2868.75   1
  -6  -2   0 151448. 2284.05   4
  -6   2   0 164301. 2663.71   4
   6  -2   0 161129. 4074.90   3
  -6  -2   0 168223. 3621.26  19
   6  -2   0 173196. 3339.62  18
   6   2   0 168916. 2694.25  18
  -6  -2  -1-5.60654 116.072   4
  -6   2  -1 102.651 134.178   4
   6  -2   1 66.5829 168.992   3
  -6  -2  -1-0.47464 140.546   1
  -6   2  -1 120.313 132.069   1
   6   2   1-38.9182 83.7823  18
  -6  -2  -1 93.4595 164.868  19
  -6  -2  -2 125797. 2799.91   1
  -6   2  -2 125144. 2461.55   1
  -6   2  -2 126002. 2919.48   4
   6  -2   2 126601. 3020.61   3
  -6  -2  -2 124541. 2705.33   4
  -6  -2  -2 118542. 2902.62  19
   6   2   2 121118. 1999.72  18
  -6  -2  -3 286.390 176.377   4
  -6   2  -3 182.930 208.141   4
   6  -2   3 86.7726 115.799   3
  -6  -2  -3 189.777 147.928   1
  -6   2  -3 161.875 134.607   1
   6   2   3 274.325 108.092  18
  -6  -2  -3 408.578 237.683  19
  -6  -2  -4 221753. 4240.72   1
  -6   2  -4 225854. 3482.08   1
  -6   2  -4 230368. 5568.45   4
   6  -2   4 220118. 3410.60   3
  -6  -2  -4 230738. 5120.40   4
   6   2   4 228725. 2689.02  18
  -6  -2  -4 218913. 3888.02  19
   6   2   5 19176.3 1248.81   3
  -6   2  -5 17143.7 1605.58   4
   6  -2   5 17695.1 919.249   3
  -6  -2  -5 16851.0 1525.89   4
   6   2   5 18552.4 778.913  18
  -6  -2  -5 18895.3 1425.61   1
  -6   2  -5 18353.3 1048.30   1
  -6  -2  -5 17254.5 950.156  16
  -6   2  -6 114557. 2786.15   1
  -6  -2  -6 117794. 3413.11   1
  -6  -2  -6 117652. 2630.23  16
   6  -2   6 114932. 2278.03   3
  -6  -2  -6 114017. 4022.25   4
  -6   2  -6 121676. 4188.72   4
  -6   2  -7 14173.6 1084.71   1
  -6   2  -7 14207.4 1420.56   4
  -6  -2  -7 15327.3 1482.42   4
  -6  -2  -7 14749.8 998.049  16
   6  -2   7 14072.9 971.536  17
  -6  -2  -8 38677.4 874.359  14
  -6   2  -8 37603.7 884.599  14
  -6   2  -8 38993.9 2303.07   4
  -6  -2  -8 38584.6 2353.79   4
  -6   2  -8 37962.4 963.974  12
  -6  -2  -8 38362.9 883.202  11
  -6  -2  -8 38678.4 878.079  10
  -6   2  -8 39930.3 2037.94   1
  -6  -2  -8 38196.3 948.199  15
  -6   2  -8 39972.1 917.750  15
  -6  -2  -8 35447.8 1655.39  16
   6  -2   8 37553.0 1636.22  17
  -6  -2  -8 38181.7 883.590   8
  -6  -2  -9 10521.0 482.519   6
  -6  -2  -9 10657.6 467.808   7
  -6   2  -9 11050.6 544.430  12
  -6  -2  -9 11024.2 640.389  12
  -6   2  -9 11113.1 490.182  11
  -6  -2  -9 10241.0 470.642  11
  -6  -2  -9 10365.4 1246.33   4
  -6   2  -9 9687.94 1141.17   4
  -6   2  -9 10538.2 482.354  10
  -6  -2  -9 10838.1 492.828  10
  -6  -2  -9 10681.3 521.900  15
   6  -2   9 10357.2 894.440  17
  -6  -2  -9 9775.37 936.848  16
  -6   2  -9 11009.1 496.647  15
  -6   2  -9 10970.8 495.915  14
  -6  -2  -9 10607.4 469.534  14
  -6   2 -10 151636. 1869.59  14
  -6  -2 -10 151580. 1778.68  14
  -6  -2 -10 150542. 1818.92   7
  -6   2 -10 145637. 1987.51  12
  -6   2 -10 154845. 1851.63  11
  -6  -2 -10 147778. 1811.73  11
  -6  -2 -10 147643. 2359.80  12
   6  -2  10 150619. 3473.29  17
  -6   2 -10 153019. 1893.35  10
  -6  -2 -10 150468. 1888.55  10
  -6  -2 -10 148061. 4635.38   4
  -6   2 -10 151687. 4401.43   4
  -6   2 -10 154215. 1856.04  15
  -6  -2 -10 142299. 3721.59  16
  -6  -2 -10 153317. 1991.74  15
  -6   2 -11 751.979 163.389  10
  -6  -2 -11 790.121 162.716  10
  -6   2 -11 857.279 173.029  15
  -6  -2 -11 573.218 164.611  15
  -6  -2 -11 791.849 145.760  14
  -6   2 -11 671.558 187.501  12
  -6   2 -11 752.107 155.591  11
  -6  -2 -11 824.488 162.384  11
  -6  -2 -11 379.022 259.909  12
  -6  -2 -11 735.331 160.437   7
  -6   2 -12 43156.1 1003.14  11
  -6   2 -12 41064.2 1087.84  12
  -6  -2 -12 42788.2 1001.27  11
  -6  -2 -12 41638.9 1297.44  12
  -6  -2 -12 39449.3 905.159  14
  -6   2 -12 41733.5 1048.67  10
  -6  -2 -12 41204.6 1046.69  10
  -6   2 -12 41974.8 972.531  15
  -6  -2 -12 43208.2 1079.96  15
  -6  -2 -12 42950.2 1016.68   7
  -6   2 -13 1661.64 227.546  10
  -6  -2 -13 1815.39 237.992  10
  -6  -2 -13 1764.54 216.640   7
  -6  -2 -13 2430.42 296.374  15
  -6   2 -13 1825.42 214.257  15
  -6  -2 -13 1832.12 296.806  12
  -6   2 -13 1579.53 240.685  12
  -6   2 -14 25068.4 818.181  10
  -6  -2 -14 24490.5 807.736  10
  -6  -2 -14 24650.5 768.983   7
  -6  -2 -14 27267.3 847.960  15
  -6   2 -14 24195.1 683.861  15
  -6  -2 -14 24969.6 964.922  12
  -6   2 -14 25642.0 839.472  12
  -6   2 -15 5848.40 397.527  10
  -6  -2 -15 5873.41 394.533  10
  -6  -2 -15 5564.98 351.722   7
  -6   2 -15 6629.93 349.304  15
  -6   2 -15 5555.28 376.888  12
  -6  -2 -16 44324.0 1028.41  10
  -6   2 -16 44479.3 1043.27  10
  -6   2 -16 44388.3 965.823  12
  -6  -2 -16 42159.2 883.345   7
  -6   2 -17 2202.35 221.094  12
  -6  -2 -17 5.65622 109.236  10
   6   3 -17 1643.30 133.057   7
   6   3 -17 1349.71 110.505   9
   6  -3 -17 1415.78 126.488  10
   6   3 -16 2479.92 178.817  10
   6   3 -16 2804.77 183.875   9
   6  -3 -16 2660.56 207.397  10
   6  -3 -16 2767.32 163.546   7
   6   3 -16 2682.93 170.740  13
   6   3 -15 28810.1 694.590  10
   6  -3 -15 30585.3 770.017  10
   6   3 -15 29836.0 643.269   9
   6   3 -15 30821.4 650.150  13
   6  -3 -15 29559.4 626.054   7
   6   3 -14 42.6207 75.9353  10
   6  -3 -14 107.550 93.3980  10
   6  -3 -14 28.4112 94.8263   9
   6   3 -14 55.1147 96.5402   9
   6  -3 -14 16.9700 75.8234   7
   6   3 -14-12.4432 80.6503  13
   6   3 -13 149773. 1614.02   9
   6  -3 -13 148932. 1967.53  10
   6  -3 -13 151568. 1760.75   9
   6   3 -13 149189. 1639.42  13
   6  -3 -13 147717. 1795.11  13
   6  -3 -13 144651. 1674.53   7
   6  -3 -12 820.414 148.785   9
   6   3 -12 813.875 143.361   9
   6  -3 -12 860.842 142.870   7
   6   3 -12 737.802 132.221  13
   6  -3 -12 826.078 152.803  13
   6   3 -12 776.756 159.623  10
   6  -3 -12 769.533 174.952  10
   6  -3 -11 17299.0 628.513   9
   6   3 -11 15767.7 545.062   9
  -6   3  11 16697.6 1123.61   2
   6  -3 -11 17702.7 1334.23  16
   6   3 -11 16161.8 1196.98  18
   6  -3 -11 16984.6 658.336  13
   6   3 -11 16614.9 572.116  13
   6  -3 -10 4067.81 332.527  13
   6  -3 -10 3934.40 303.898   9
   6   3 -10 3974.83 279.983   9
   6   3 -10 3507.86 270.069  13
   6  -3 -10 3297.08 576.482  16
   6   3 -10 3899.51 571.894  18
  -6  -3  10 3681.58 563.585  17
  -6   3  10 3348.00 497.528   2
   6  -3  -9 125931. 1803.24  13
   6   3  -9 121747. 1525.95  13
   6   3  -9 119785. 2981.28  18
   6  -3  -9 121658. 1653.35   9
   6   3  -9 119248. 1464.47   9
  -6   3   9 117418. 2824.73   2
   6  -3  -9 118149. 3287.06  16
   6   3  -8 9612.42 818.665  18
  -6  -3   8 9730.06 840.683  17
  -6   3   8 10504.8 829.733   2
   6   3  -7 163237. 3331.64  18
  -6  -3   7 162292. 3226.86  17
  -6   3   7 170626. 3257.67   2
   6   3  -6 8875.27 786.788  18
  -6  -3   6 8462.74 706.835  17
  -6   3   6 9190.26 624.085   1
  -6   3   6 8747.14 743.978   2
  -6  -3   6 7947.91 765.220  19
   6  -3  -6 9093.31 761.580   3
   6   3  -5 1134.39 321.625  18
  -6  -3   5 1625.90 320.852  17
  -6  -3   5 1454.87 361.093  19
  -6   3   5 2291.66 361.356   1
  -6   3   5 1787.50 348.043   2
   6   3  -4 55.8716 201.232  18
  -6  -3   4 107.676 204.250  19
   6  -3  -4 202.059 179.860   3
  -6   3   4 309.134 178.738   2
  -6   3   4 231.725 235.266   1
  -6  -3   4 30.7787 105.550  17
   6   3  -3 143712. 3490.42  18
  -6  -3   3 160650. 3026.41  17
  -6   3   3 140234. 3723.22   2
  -6   3   3 161565. 3274.43   1
  -6  -3   3 163582. 4127.47  19
   6  -3  -3 151683. 3613.03   3
   6   3  -2 6024.90 629.265  18
  -6   3   2 6215.87 592.486   1
  -6  -3   2 5015.16 702.890  19
  -6   3   2 6085.05 789.869   2
   6  -3  -2 5900.38 824.161   3
   6   3  -1 449175. 4728.19  18
  -6   3   1 439117. 4602.89   1
  -6  -3   1 427390. 5964.93  19
   6  -3  -1 443852. 6990.80   3
  -6   3   1 443903. 5978.93   2
   6   3   0 15297.9 804.121  18
  -6   3   0 14538.7 824.156   1
  -6  -3   0 14762.7 1091.70  19
   6  -3   0 15319.4 1207.51   3
  -6  -3   0 14407.8 740.920   4
   6   3   1 38911.5 1215.81  18
  -6   3  -1 36758.2 1299.80   1
  -6  -3  -1 36532.4 1704.76  19
   6  -3   1 40040.6 1790.37   3
  -6  -3  -1 39116.3 1376.35   4
  -6  -3  -2 791.144 239.235   4
  -6   3  -2 731.339 274.138   4
   6  -3   2 543.871 200.469   3
   6   3   2 815.594 177.629  18
  -6  -3  -2 1006.07 315.342  19
  -6   3  -2 1013.81 241.710   1
   6   3   3 98209.5 1889.57  18
  -6   3  -3 98297.3 2203.86   1
  -6  -3  -3 93364.3 2974.66  19
   6  -3   3 95886.6 2386.42   3
  -6  -3  -3 97392.2 2842.19   4
  -6   3  -4 865.382 239.011   1
   6   3   4 1197.97 220.738  18
  -6  -3  -4 1499.49 409.219  19
  -6  -3  -4 783.086 280.341   4
  -6   3  -4 900.887 375.148   4
   6  -3   4 907.012 227.217   3
  -6   3  -5 54931.0 1786.35   1
  -6   3  -5 52865.8 2950.61   4
   6  -3   5 50775.0 1640.91   3
  -6  -3  -5 55468.7 2932.32   4
   6   3   5 53575.8 1462.94  18
  -6  -3  -5 51046.4 1665.48  16
  -6   3  -6 12196.5 898.738   1
  -6   3  -6 12114.0 1385.19   4
   6  -3   6 11896.4 775.754   3
  -6  -3  -6 10965.7 1312.79   4
   6   3   6 12551.4 728.246  18
  -6  -3  -6 12386.2 876.591  16
   6  -3   7 99.1325 184.533  17
  -6  -3  -7 56.8610 121.622  16
  -6   3  -7 129.837 189.735   1
  -6  -3  -7-1.32878 153.725   4
   6  -3   8 934.702 308.611  17
  -6  -3  -8 1220.85 325.700  16
  -6   3  -8 1364.68 180.274  15
  -6  -3  -8 1508.92 185.830   7
  -6  -3  -8 1277.47 171.428   6
  -6   3  -8 1207.88 171.168  11
  -6  -3  -8 1275.56 271.186  12
  -6  -3  -8 1254.02 167.140  11
  -6   3  -8 1392.21 211.608  12
  -6  -3  -8 1161.88 195.152  15
  -6  -3  -8 1262.06 167.502  14
  -6   3  -8 1289.19 181.911  14
  -6   3  -8 1092.15 346.598   1
  -6  -3  -8 1199.06 451.546   4
  -6   3  -8 776.035 377.073   4
  -6  -3  -8 1250.24 168.693  10
  -6   3  -8 1324.16 166.181  10
  -6  -3  -9 136319. 1654.37  14
  -6   3  -9 137507. 1760.28  14
  -6  -3  -9 135196. 1692.32   7
  -6  -3  -9 140694. 1750.67   6
  -6  -3  -9 137692. 1715.22  11
  -6   3  -9 136869. 1877.80  12
  -6  -3  -9 135940. 2426.74  12
  -6   3  -9 137177. 1704.34  11
  -6  -3  -9 143118. 4761.76   4
  -6   3  -9 141131. 4388.93   4
  -6   3  -9 137059. 1715.47  10
  -6  -3  -9 134840. 1723.99  10
  -6   3  -9 139730. 1747.71  15
   6  -3   9 137548. 3348.54  17
  -6  -3  -9 130914. 3401.41  16
  -6  -3  -9 134233. 1922.44  15
  -6  -3 -10-45.3732 157.272  15
  -6  -3 -10 192.212 87.3883  14
  -6   3 -10 142.838 109.444  15
  -6  -3 -10 177.973 102.987   7
  -6   3 -10 308.886 159.510  12
  -6   3 -10 163.285 92.6928  11
  -6  -3 -10 100.952 88.4857  11
  -6  -3 -10-170.152 289.424  12
  -6  -3 -10 430.272 278.730   4
  -6  -3 -10 85.4614 89.4463   6
   6  -3  10-14.4873 134.856  17
  -6  -3 -10 167.454 207.544  16
  -6  -3 -10 174.781 112.179  10
  -6   3 -10 100.614 95.5713  10
  -6   3 -11 160365. 1910.58  11
  -6   3 -11 160502. 2072.37  12
  -6  -3 -11 158930. 2686.23  12
  -6  -3 -11 157749. 1895.78  11
  -6  -3 -11 158291. 1786.96  14
  -6   3 -11 159823. 1979.53  10
  -6  -3 -11 160107. 1999.57  10
  -6   3 -11 159344. 1871.47  15
  -6  -3 -11 161472. 2142.87  15
  -6  -3 -11 164358. 2095.75   6
  -6  -3 -11 162979. 1974.05   7
  -6  -3 -12 500.926 150.260  10
  -6   3 -12 407.242 133.769  10
  -6  -3 -12 563.653 207.545  15
  -6   3 -12 372.785 142.931  15
  -6  -3 -12 222.838 104.502  14
  -6  -3 -12 318.193 140.061   7
  -6  -3 -12 109.921 246.127  12
  -6   3 -12 400.253 141.809  11
  -6  -3 -12 492.184 140.918  11
  -6   3 -12 91.6774 143.279  12
  -6  -3 -13 7308.13 445.598  10
  -6   3 -13 7663.84 451.435  10
  -6  -3 -13 7509.05 435.873   7
  -6   3 -13 7054.98 381.654  15
  -6   3 -13 7126.00 440.675  12
  -6  -3 -13 7932.81 609.782  12
  -6  -3 -14 2598.12 267.196  10
  -6   3 -14 2550.81 267.153  10
  -6  -3 -14 2866.82 277.445   7
  -6   3 -14 2220.90 203.515  15
  -6  -3 -14 3412.11 454.459  12
  -6   3 -14 2520.13 270.059  12
  -6   3 -15 57177.0 1129.71  12
  -6  -3 -15 57169.6 1118.47   7
  -6   3 -15 58121.5 1203.79  10
  -6  -3 -15 56926.7 1179.46  10
  -6  -3 -15 58337.5 1297.38  12
  -6   3 -15 54031.2 874.413  15
  -6   3 -16 659.227 140.408  10
  -6  -3 -16 572.412 127.240  10
  -6  -3 -16 547.105 115.657   7
  -6   3 -16 555.805 124.705  12
  -6  -3 -17 28895.3 705.900  10
   6   4 -17 3648.91 181.326   7
   6   4 -17 3719.05 164.974   9
   6  -4 -17 3427.20 170.321  10
   6   4 -16 210.349 57.4875  13
   6   4 -16 26.4811 64.3018   9
   6  -4 -16 141.915 68.7472  10
   6   4 -15 1108.12 132.854  10
   6  -4 -15 889.054 140.083  10
   6   4 -15 1049.32 131.907   9
   6   4 -15 1155.50 130.948  13
   6   4 -14 49221.5 857.558   9
   6  -4 -14 47162.1 1013.70  10
   6   4 -14 48681.9 864.591  13
   6   4 -13 3375.30 279.148  10
   6  -4 -13 3656.82 316.470  10
   6   4 -13 3722.46 261.779   9
   6   4 -13 3655.63 259.908  13
   6   4 -12 86267.4 1246.51   9
   6  -4 -12 86985.9 1540.49  10
   6   4 -12 84992.0 1437.57  10
   6  -4 -12 88372.1 1424.11   9
   6   4 -12 88593.0 1289.68  13
   6  -4 -11 1068.06 181.011   9
   6   4 -11 970.838 144.118   9
   6   4 -11 903.486 160.638  10
   6   4 -11 1117.25 162.183  13
   6  -4 -11 964.092 167.311  13
   6   4 -10 20340.8 643.231  13
   6   4 -10 19193.5 609.891   9
   6  -4 -10 22036.3 743.847   9
   6  -4 -10 19637.0 761.971  13
   6   4 -10 18581.8 1220.95  18
  -6  -4  10 18984.9 1257.05  17
   6  -4 -10 18435.8 1380.67  16
  -6   4  10 17661.6 1180.07   2
   6   4  -9 20438.3 653.411  13
   6  -4  -9 21038.7 732.789   9
   6   4  -9 20073.4 618.814   9
   6  -4  -9 21156.1 808.929  13
   6   4  -9 20328.3 1247.36  18
  -6  -4   9 21447.6 1304.09  17
   6  -4  -9 19698.3 1428.24  16
  -6   4   9 22881.0 1304.41   2
   6  -4  -8 185305. 2436.45  13
   6   4  -8 179490. 1954.88  13
   6   4  -8 182683. 1839.91   9
   6  -4  -8 182916. 2209.19   9
   6   4  -8 176772. 3614.94  18
  -6   4   8 189481. 3698.51   2
  -6  -4   7 5516.97 677.296  19
   6   4  -7 5008.55 618.311  18
  -6  -4   7 4649.37 562.482  17
  -6   4   7 4521.70 581.088   2
  -6  -4   6 44572.4 2026.42  19
   6  -4  -6 45840.0 1882.51   3
   6   4  -6 41462.6 1853.50  18
  -6  -4   6 41608.3 1578.58  17
  -6   4   6 40279.6 1718.57   2
  -6  -4   5 6071.56 830.652  19
   6  -4  -5 5413.79 691.745   3
   6   4  -5 5447.94 749.489  18
  -6  -4   5 6098.85 587.267  17
  -6   4   5 7155.56 701.753   1
  -6   4   5 6262.06 712.855   2
  -6  -4   4 19730.6 1454.10  19
   6  -4  -4 19994.4 1435.69   3
   6   4  -4 19059.7 1423.84  18
  -6  -4   4 20607.2 1041.22  17
  -6   4   4 19235.5 1344.81   2
  -6   4   4 20078.2 1229.55   1
  -6  -4   3 36699.9 1837.19  19
  -6   4   3 35608.2 2156.83   2
   6  -4  -3 38409.5 2203.73   3
   6   4  -3 36369.7 1683.01  18
  -6  -4   3 37769.6 1455.15  17
  -6   4   3 37318.8 1489.38   1
  -6  -4   2 207733. 4137.37  19
   6  -4  -2 222530. 5218.36   3
  -6   4   2 210400. 5079.67   2
   6   4  -2 223285. 3680.80  18
  -6   4   2 205725. 3209.71   1
  -6  -4   1 13258.6 1015.02  19
   6  -4  -1 14965.6 1269.24   3
  -6   4   1 14038.2 1163.58   2
   6   4  -1 13955.8 839.504  18
  -6   4   1 13672.2 804.781   1
  -6  -4   0 195287. 3731.00  19
   6   4   0 202310. 2994.10  18
  -6   4   0 196290. 3023.56   1
  -6  -4  -1 4967.77 591.252  19
  -6   4  -1 4628.20 471.798   1
   6  -4   1 4581.29 617.007   3
   6   4   1 4684.49 451.251  18
  -6  -4  -2 70983.5 2252.56  19
  -6  -4  -2 73196.5 2248.81   4
   6  -4   2 68682.9 2179.79   3
   6   4   2 70552.7 1706.97  18
  -6   4  -2 70983.9 1863.48   1
   6   4   3 5656.44 498.150  18
  -6   4  -3 5416.77 542.017   1
  -6   4  -3 6727.43 850.251   4
   6  -4   3 5886.65 615.323   3
  -6  -4  -3 5958.13 747.913   4
  -6  -4  -3 6157.32 700.730  19
  -6  -4  -4 192069. 4183.43  19
  -6   4  -4 198919. 3354.37   1
   6  -4   4 194772. 3409.80   3
  -6   4  -4 193872. 5394.15   4
  -6  -4  -4 203530. 4991.29   4
   6   4   4 200167. 2987.23  18
  -6  -4  -4 190075. 3060.67  16
  -6   4  -5 4922.90 559.906   1
   6  -4   5 4853.51 530.553   3
  -6  -4  -5 5420.72 1032.45   4
  -6   4  -5 5260.77 999.532   4
   6   4   5 5039.91 493.280  18
  -6  -4  -5 5426.43 550.012  16
  -6   4  -6 93533.9 2531.50   1
  -6  -4  -6 90378.2 2372.72  16
  -6   4  -6 92586.8 3993.89   4
  -6  -4  -6 92771.8 4109.75   4
   6  -4   6 96519.6 2316.31   3
   6   4   6 97842.6 2212.82  18
  -6   4  -7 382.516 131.784  12
   6  -4   7 178.048 175.071  17
  -6  -4  -7 428.957 207.461  16
  -6  -4  -7 62.0854 245.270   4
  -6   4  -7 782.256 368.964   4
  -6   4  -7 663.008 287.018   1
   6  -4   8 1367.03 345.633  17
  -6   4  -8 1913.89 218.220  15
  -6  -4  -8 1294.70 360.481  16
  -6  -4  -8 1553.80 178.453  14
  -6   4  -8 1560.22 205.351  14
  -6  -4  -8 1552.18 226.637  15
  -6  -4  -8 1406.00 184.027   6
  -6  -4  -8 1195.37 168.964   7
  -6  -4  -8 1093.92 150.068  11
  -6  -4  -8 794.025 288.029  12
  -6   4  -8 1249.35 200.546  12
  -6   4  -8 1560.82 178.579  11
  -6   4  -8 1643.82 431.942   1
  -6   4  -8 1565.39 173.391  10
  -6  -4  -8 1108.70 153.865  10
  -6   4  -8 500.219 331.411   4
  -6   4  -9 1154.97 174.846  15
  -6  -4  -9 956.134 199.984  15
  -6  -4  -9 1374.83 178.878  14
  -6  -4  -9 1074.57 177.329   7
  -6  -4  -9 1404.56 185.129  11
  -6   4  -9 1144.30 165.837  11
  -6  -4  -9 860.341 277.057  12
  -6   4  -9 1255.39 218.696  12
  -6   4  -9 1257.30 178.401  10
  -6  -4  -9 1314.73 190.308  10
  -6  -4  -9 1081.70 179.403   6
   6  -4   9 830.732 335.180  17
  -6  -4  -9 1567.67 419.840  16
  -6   4  -9 967.240 405.762   4
  -6  -4 -10 241640. 2764.55  15
  -6  -4 -10 233955. 4856.72  16
  -6   4 -10 243833. 2305.13  15
  -6  -4 -10 232456. 2140.95  14
  -6  -4 -10 238332. 2372.31   7
  -6  -4 -10 244023. 2454.38   6
  -6   4 -10 252495. 2338.30  11
  -6   4 -10 233521. 2466.32  12
  -6  -4 -10 234553. 3504.64  12
  -6  -4 -10 241571. 2294.05  11
  -6   4 -10 235877. 2305.09  10
  -6  -4 -10 244505. 2387.67  10
   6  -4  10 247648. 4763.66  17
  -6   4 -10 259539. 5887.89   4
  -6  -4 -11 967.748 185.419   7
  -6   4 -11 1014.37 176.550  11
  -6   4 -11 1178.65 220.047  12
  -6  -4 -11 1053.97 173.692  11
  -6  -4 -11 774.193 280.808  12
  -6   4 -11 919.843 178.510  10
  -6  -4 -11 1001.65 184.040  10
  -6  -4 -11 811.371 182.677   6
  -6  -4 -11 991.250 155.054  14
  -6   4 -11 1147.34 179.219  15
  -6  -4 -11 1117.76 266.586  15
  -6  -4 -12 29849.9 1212.15  12
  -6   4 -12 29047.7 866.816  12
  -6   4 -12 28142.0 750.104  15
  -6  -4 -12 28960.4 975.290  15
  -6   4 -12 27584.9 827.628  10
  -6  -4 -12 27416.5 832.808  10
  -6  -4 -12 26584.4 691.441  14
  -6  -4 -12 27639.1 834.431   7
  -6  -4 -12 28226.2 912.952   6
  -6  -4 -13 21270.7 728.633  10
  -6   4 -13 21337.1 727.241  10
  -6   4 -13 21598.8 626.357  15
  -6  -4 -13 20772.9 721.762   7
  -6   4 -13 20805.8 717.402  12
  -6   4 -14 22095.3 708.508  12
  -6   4 -14 20388.4 560.703  15
  -6  -4 -14 21814.4 718.872   7
  -6   4 -14 20760.5 715.412  10
  -6  -4 -14 21340.3 717.982  10
  -6  -4 -15 879.824 157.864  10
  -6   4 -15 841.203 151.101  10
  -6   4 -15 523.650 120.703  12
  -6  -4 -15 877.943 157.579   7
  -6  -4 -16 30487.9 793.401  10
  -6   4 -16 29531.6 673.760  12
  -6  -4 -16 30785.2 760.975   7
   6   5 -17 6181.94 188.984   9
   6   5 -17 6487.18 213.736   7
   6   5 -16 40.4654 48.0279  13
   6   5 -16 103.488 53.9380   9
   6  -5 -16 13.8759 65.4487  10
   6  -5 -15 21826.3 576.527  10
   6   5 -15 23116.3 517.450   9
   6   5 -15 22267.4 505.416  13
   6   5 -14 166.029 72.1893  13
   6   5 -14 62.5764 71.8551   9
   6  -5 -14 43.3455 104.955  10
   6  -5 -13 87366.3 1427.71  10
   6   5 -13 87821.6 1178.49   9
   6   5 -13 88793.8 1208.27  13
   6   5 -12 5321.65 319.861  13
   6   5 -12 5254.04 311.063   9
   6  -5 -12 5399.34 386.406  10
   6   5 -11 18141.7 601.528  13
   6   5 -11 16211.1 555.679   9
   6  -5 -11 17871.7 709.152  10
   6  -5 -10 6683.64 864.033  16
   6   5 -10 6104.06 368.042  13
   6   5 -10 6394.68 360.549   9
   6   5 -10 5634.68 677.877  18
  -6  -5  10 6630.72 752.016  17
   6  -5  -9 31816.2 1858.15  16
   6   5  -9 32503.8 1597.01  18
  -6  -5   9 31712.6 1584.81  17
  -6   5   9 30040.4 1578.75   2
   6   5  -9 33352.0 814.879   9
   6   5  -9 32381.6 858.502  13
   6   5  -8 7700.27 395.023   9
  -6  -5   8 8062.87 835.568  19
   6   5  -8 8209.57 818.382  18
  -6  -5   8 6608.74 715.513  17
   6   5  -8 7651.78 438.304  13
  -6   5   8 7601.58 789.518   2
  -6  -5   7 102077. 1685.01  20
  -6   5   7 97313.4 2852.71   2
   6   5  -7 96449.2 1591.88  13
   6   5  -7 100240. 2906.26  18
  -6  -5   7 102551. 2648.41  17
   6   5  -6 2745.30 519.664  18
  -6  -5   6 3203.52 453.040  17
  -6  -5   6 2754.89 591.183  19
  -6   5   6 2846.82 507.723   2
   6  -5  -6 2946.47 530.754   3
  -6   5   5 4735.66 695.706   2
  -6  -5   5 5478.85 819.040  19
   6   5  -5 5209.78 844.160  18
  -6  -5   5 5363.27 561.101  17
   6  -5  -5 5580.20 790.888   3
  -6   5   4 76.4639 146.632   1
  -6   5   4-4.00203 129.879   2
   6   5  -4 202.323 201.716  18
  -6  -5   4 355.093 242.677  19
  -6  -5   4 199.739 122.120  17
   6  -5  -4 113.046 256.477   3
  -6   5   3 156220. 2932.98   1
   6   5  -3 164017. 3574.66  18
  -6  -5   3 152694. 2935.67  17
  -6  -5   3 164725. 3803.30  19
   6  -5  -3 169385. 4938.29   3
  -6   5   3 164869. 5355.59   2
  -6   5   2 7665.92 625.701   1
   6   5  -2 9112.79 759.167  18
  -6  -5   2 7559.01 780.640  19
  -6   5   2 7401.50 1013.95   2
   6  -5  -2 7787.60 1015.85   3
  -6   5   1 259215. 3556.28   1
   6   5  -1 273200. 3835.69  18
  -6  -5   1 297241. 4628.89  19
   6  -5  -1 286864. 5584.98   3
  -6   5   1 269914. 5461.96   2
  -6   5   0 77682.6 1944.16   1
   6   5   0 80576.8 1996.38  18
  -6  -5   0 82155.9 2378.01  19
   6  -5   0 78593.5 2742.74   3
   6   5   1 1190.85 245.058  18
  -6  -5  -1 1250.70 307.704  19
  -6   5  -1 1001.86 247.129   1
   6  -5   1 1022.99 311.901   3
  -6   5  -2 4758.91 508.942   1
   6   5   2 4942.78 494.609  18
  -6  -5  -2 5492.66 619.011  19
   6  -5   2 5500.53 643.552   3
  -6   5  -3 112233. 2527.72   1
   6   5   3 110143. 2331.46  18
  -6  -5  -3 115024. 2870.87  19
   6  -5   3 114313. 2825.39   3
  -6   5  -4 3729.33 487.221   1
  -6  -5  -4 3023.50 516.628  19
   6   5   4 3294.98 425.440  18
   6  -5   4 4816.71 577.242   3
  -6   5  -4 3116.54 745.039   4
  -6   5  -5 90264.3 2466.55   1
  -6  -5  -5 87241.3 2258.19  16
   6   5   5 95266.4 2289.92  18
  -6   5  -5 91595.1 4370.86   4
   6  -5   5 93225.5 2443.84   3
  -6   5  -6 12165.2 955.989   1
  -6   5  -6 10853.6 1457.88   4
   6  -5   6 13523.1 922.544   3
   6   5   6 13281.7 888.143  18
  -6  -5  -6 12947.1 938.052  16
  -6  -5  -7 89.2358 94.0110  10
  -6  -5  -7 428.243 116.625   6
  -6   5  -7 489.450 196.671   1
   6  -5   7 6.67523 231.042  17
  -6  -5  -7 375.487 209.100  16
  -6  -5  -7 417.304 106.030  14
  -6   5  -7 227.569 99.8185  15
  -6  -5  -7 51.1135 218.572  15
  -6  -5  -7 252.178 92.7561   7
  -6   5  -7 636.753 159.066  12
  -6   5  -7 117.587 184.658   4
  -6  -5  -7 482.065 106.702   8
  -6   5  -8 14215.5 538.880   9
  -6  -5  -8 13350.5 510.399  14
  -6  -5  -8 13854.4 551.979   7
  -6  -5  -8 13668.1 552.412   6
  -6  -5  -8 12162.8 903.755  12
  -6   5  -8 13519.6 518.468  11
  -6   5  -8 13604.9 612.455  12
  -6  -5  -8 12935.0 509.682  11
  -6   5  -8 13439.9 548.584  15
  -6  -5  -8 13338.4 694.443  15
  -6  -5  -8 13332.0 1049.97  16
   6  -5   8 13318.4 1135.06  17
  -6   5  -8 12839.5 1105.81   1
  -6   5  -8 12307.1 1402.73   4
  -6  -5  -8 13046.7 511.310  10
  -6   5  -9 82634.3 1330.38   9
  -6   5  -9 83982.5 1360.62  15
  -6  -5  -9 87334.5 1758.52  15
   6  -5   9 83533.3 2814.62  17
  -6  -5  -9 83595.5 2768.15  16
  -6  -5  -9 86567.6 1430.90   6
  -6  -5  -9 87462.0 1410.78   7
  -6  -5  -9 82253.7 1294.29  11
  -6   5  -9 84964.7 1322.75  11
  -6   5  -9 85336.0 1493.01  12
  -6  -5  -9 82137.4 2244.36  12
  -6  -5  -9 83950.5 1267.06  14
  -6   5  -9 83259.0 3067.98   1
  -6   5  -9 83867.8 3503.68   4
  -6  -5  -9 83283.9 1335.67  10
  -6  -5 -10 30493.7 855.101   7
  -6  -5 -10 29103.8 863.209   6
  -6  -5 -10 28166.3 799.621  10
  -6   5 -10 28515.9 784.786  11
  -6  -5 -10 29751.3 1351.91  12
  -6   5 -10 29575.9 877.386  12
  -6  -5 -10 28123.3 774.744  11
  -6  -5 -10 30391.5 1049.67  15
  -6   5 -10 28208.4 778.179  15
  -6  -5 -10 28398.0 728.418  14
  -6  -5 -11 98954.5 1577.23   7
  -6  -5 -11 101409. 1643.88   6
  -6  -5 -11 101380. 1537.19  10
  -6   5 -11 102415. 1511.39  10
  -6  -5 -11 103265. 2425.22  12
  -6   5 -11 100982. 1586.26  12
  -6  -5 -11 98286.0 1454.32  11
  -6  -5 -11 103858. 1891.64  15
  -6   5 -11 99547.3 1414.66  15
  -6  -5 -11 103035. 1339.18  14
  -6   5 -12 6018.34 393.849  12
  -6  -5 -12 5778.92 374.436  10
  -6   5 -12 5932.60 376.206  10
  -6   5 -12 5977.92 344.791  15
  -6  -5 -12 5751.64 416.976   6
  -6  -5 -12 5909.69 397.551   7
  -6   5 -13 1251.80 195.826  12
  -6  -5 -13 1298.54 184.372  10
  -6  -5 -13 1369.07 209.857   6
  -6  -5 -13 1507.04 214.571   7
  -6   5 -13 1189.66 143.951  15
  -6  -5 -14 70.1447 81.4616  10
  -6   5 -14 113.420 98.0519  12
  -6  -5 -14-13.8782 131.837   7
  -6  -5 -15 41269.4 919.347  10
  -6  -5 -15 42527.2 951.976   7
  -6   5 -15 41196.5 837.389  12
  -6  -5 -16-10.5547 85.2821   7
  -6   5 -16-128.671 118.318  12
   6   6 -16 304.131 60.9575   9
   6   6 -16 282.194 52.4492  13
   6   6 -15 106.401 63.8483   9
   6  -6 -15 34.4418 52.9071  10
   6   6 -15 45.1614 55.3147  13
   6  -6 -15 83.7674 58.9846   6
   6   6 -14 53815.9 819.919   9
   6   6 -14 53022.5 826.137  13
   6   6 -13 1274.99 151.265   9
   6  -6 -13 1273.67 177.040  10
   6   6 -13 1430.88 162.492  13
   6   6 -12 39605.1 815.467   9
   6  -6 -12 40047.3 986.057  10
   6   6 -12 40316.3 849.891  13
   6   6 -11 13261.0 498.894   9
   6  -6 -11 12797.4 593.776  10
   6   6 -11 13257.0 519.597  13
   6   6 -10 1527.54 184.774   9
   6   6 -10 1403.68 189.904  13
   6  -6 -10 1715.37 237.335  10
   6   6  -9 4700.53 348.748  13
  -6   6   9 2896.89 536.243   2
   6   6  -9 3986.84 579.487  18
  -6  -6   9 4103.52 574.268  17
   6   6  -9 4419.90 305.687   9
   6  -6  -9 4232.13 713.584  16
   6   6  -8 104916. 1704.85  13
  -6   6   8 105077. 3145.23   2
   6   6  -8 108644. 3025.70  18
  -6  -6   8 101796. 2767.60  17
  -6  -6   8 102932. 1723.60  20
   6   6  -8 106006. 1471.88   9
   6  -6  -8 105797. 3386.70  16
   6   6  -7 8063.61 875.097  18
  -6  -6   7 8733.81 787.727  17
   6   6  -7 8076.78 510.105  13
  -6   6   7 7311.32 849.185   2
  -6  -6   7 7920.96 973.586  19
  -6  -6   7 7915.76 522.028  20
  -6  -6   6 105641. 3800.53  19
  -6  -6   6 121828. 2132.19  20
   6   6  -6 129179. 3842.01  18
  -6  -6   6 113753. 2668.56  17
   6   6  -6 122800. 2116.16  13
  -6   6   6 113488. 3466.62   2
   6  -6  -6 124538. 3651.61   3
  -6  -6   5 1671.54 328.330  17
   6  -6  -5 1935.85 512.767   3
   6   6  -5 1981.84 565.930  18
  -6  -6   5 1449.95 447.158  19
  -6   6   5 1167.27 396.637   2
   6   6  -4 5842.64 788.976  18
  -6  -6   4 7004.18 620.796  17
  -6  -6   4 7654.15 877.699  19
   6  -6  -4 6898.54 1111.48   3
  -6   6   4 6731.46 1011.01   2
  -6   6   4 7907.17 732.984   1
   6   6  -3 12738.3 1018.93  18
  -6  -6   3 13753.6 1097.88  19
   6  -6  -3 14357.8 1505.36   3
  -6   6   3 12943.2 1686.85   2
  -6   6   3 13565.5 883.103   1
   6   6  -2 308357. 4536.33  18
  -6  -6   2 278357. 4669.02  19
   6  -6  -2 315749. 6520.66   3
  -6   6   2 287978. 6805.91   2
  -6   6   2 288831. 3905.27   1
   6  -6  -1-889.705 374.161   3
   6   6  -1 274.443 176.525  18
  -6  -6   1 53.4626 143.197  19
  -6   6   1-676.774 342.296   2
  -6   6   1 171.457 133.855   1
   6   6   0 77078.4 2084.61  18
  -6  -6   0 79673.7 2384.67  19
   6  -6   0 80972.9 2874.00   3
  -6   6   0 75100.5 2004.17   1
   6   6   1 44302.5 1561.46  18
  -6  -6  -1 45750.1 1784.20  19
   6  -6   1 47575.6 2088.80   3
  -6   6  -1 41645.7 1518.88   1
   6   6   2 55649.7 1758.54  18
  -6  -6  -2 59562.9 2038.60  19
   6  -6   2 56653.6 2178.76   3
  -6   6  -2 54935.1 1796.92   1
   6  -6   3 498.029 206.521   3
   6   6   3 545.651 201.141  18
  -6  -6  -3 560.685 213.202  19
  -6   6  -3 704.513 232.339   1
   6   6   4 236641. 3787.14  18
  -6   6  -4 238935. 4031.01   1
  -6  -6  -4 248139. 4433.64  19
  -6   6  -4 241868. 6590.73   4
   6  -6   4 252859. 4341.04   3
  -6  -6  -5 150.228 79.4551   7
  -6  -6  -5 99.6648 129.590  16
  -6   6  -5 264.884 184.133   1
   6   6   5 79.4239 128.339  18
  -6  -6  -5 354.524 105.799   6
   6  -6   5 56.5189 103.009   3
   6   6   6 53909.1 1910.82  18
  -6   6  -6 55141.8 1148.51  15
  -6  -6  -6 54578.5 1034.72  14
  -6  -6  -6 54951.5 1043.88   7
  -6  -6  -6 54227.3 1046.62   6
  -6  -6  -6 51472.7 1540.95  15
  -6  -6  -6 52947.4 1884.99  16
   6  -6   6 57553.9 2334.96  17
  -6   6  -6 56207.6 2120.52   1
  -6   6  -6 55321.8 3409.51   4
   6  -6   6 58736.6 2016.08   3
   6   6   7 146.664 138.382  18
   6  -6   7 241.580 225.056  17
  -6  -6  -7-101.048 220.305  16
  -6   6  -7 106.128 86.3696  15
  -6  -6  -7 151.545 90.6921  14
  -6  -6  -7 110.823 87.8642   7
  -6   6  -7 161.237 138.268  12
  -6  -6  -7 145.650 87.5020   6
  -6   6  -7-281.179 268.273   4
  -6   6  -7 143.592 176.642   1
  -6   6  -8 22023.1 705.551   9
  -6   6  -8 20457.4 681.801  15
   6  -6   8 20177.6 1414.63  17
  -6  -6  -8 19773.8 1294.62  16
  -6  -6  -8 20015.4 616.135  14
  -6   6  -8 20957.5 1449.79   1
  -6  -6  -8 21420.2 649.497  10
  -6  -6  -8 23215.6 1406.12  12
  -6   6  -8 21505.9 763.328  12
  -6   6  -8 21152.5 1888.43   4
  -6  -6  -8 20984.8 693.349   7
  -6  -6  -8 21502.1 710.300   6
  -6   6  -9 11773.0 513.273   9
  -6   6  -9 11339.9 552.497  12
  -6   6  -9 11298.3 498.925  15
  -6   6  -9 11211.2 753.664   5
  -6  -6  -9 11612.1 491.364  10
  -6  -6  -9 12042.2 539.125   7
  -6  -6  -9 11207.8 529.486   6
  -6  -6 -10 130562. 1783.13   7
  -6  -6 -10 128848. 1811.74   6
  -6  -6 -10 122533. 2631.47  12
  -6   6 -10 131375. 1805.35  12
  -6   6 -10 127024. 1601.15  15
  -6  -6 -10 127985. 1646.34  10
  -6   6 -10 125192. 1667.37   9
  -6  -6 -11 2814.06 287.303   7
  -6  -6 -11 2641.54 278.795   6
  -6   6 -11 2944.15 285.465  12
  -6   6 -11 2794.05 242.594  15
  -6  -6 -11 2767.49 257.100  10
  -6   6 -11 3086.65 290.362   9
  -6  -6 -12 16454.6 681.772   6
  -6  -6 -12 16039.1 634.479   7
  -6   6 -12 16452.9 524.436  15
  -6  -6 -12 16459.6 593.917  10
  -6   6 -12 16835.5 613.713  12
  -6   6 -12 15943.6 636.053   9
  -6  -6 -13 8780.60 426.374  10
  -6  -6 -13 8693.94 464.281   7
  -6  -6 -13 8976.72 515.868   6
  -6   6 -13 9387.80 435.797  12
  -6  -6 -14 10755.9 458.617  10
  -6   6 -14 11229.0 451.975  12
  -6  -6 -14 10917.9 500.943   7
  -6  -6 -14 11240.1 564.469   6
  -6   6 -15-133.452 129.553  12
  -6  -6 -15 73.7248 98.3318   7
  -6  -6 -16 40526.8 808.684   7
   6   7 -16 178.865 41.5571   9
   6   7 -16 203.144 52.0121   7
  -6   7  16 159.107 44.3809   5
   6   7 -15 34165.6 529.633   9
   6   7 -15 32874.3 529.054  13
   6  -7 -15 34257.9 537.703   6
   6   7 -14 43.7995 64.5002   9
   6   7 -14 111.152 70.1580  13
   6   7 -13 83702.1 1086.25  13
   6  -7 -13 83096.8 1167.74  10
   6   7 -13 86427.8 1062.18   9
   6   7 -12 6484.02 337.094  13
   6   7 -12 5934.81 307.379   9
   6  -7 -12 6302.05 365.588  10
   6   7 -11 13124.2 510.845  13
   6   7 -11 13256.7 482.534   9
   6   7 -10 21450.9 704.444  13
   6   7 -10 22190.8 647.520   9
  -6  -7   9 47677.0 1137.17  20
   6   7  -9 50491.5 1008.42   9
   6   7  -9 49969.2 1148.03  13
   6   7  -8 4822.84 398.195  13
  -6   7   8 5019.98 747.029   2
  -6  -7   8 4406.28 395.860  20
   6   7  -8 4661.19 656.694  18
  -6  -7   8 4726.28 740.563  19
   6   7  -8 4704.00 318.083   9
   6  -7  -8 4346.34 743.675  16
   6   7  -7 86602.0 1773.41  13
   6   7  -7 90772.7 3020.75  18
  -6   7   7 82715.1 3062.63   2
  -6  -7   7 90532.7 3610.43  19
  -6  -7   7 92134.4 1853.88  20
   6  -7  -7 80233.2 3114.12  16
   6   7  -6 9612.34 597.143  13
  -6   7   6 9520.02 1101.33   2
  -6  -7   6 9972.63 1169.95  19
  -6  -7   6 10275.0 671.575  20
   6   7  -6 10561.4 1172.32  18
   6   7  -5 33348.6 1025.79  13
  -6  -7   5 34200.3 2012.59  19
  -6  -7   5 31343.2 1085.24  20
   6   7  -5 32993.2 2166.85  18
  -6   7   5 35255.1 2284.47   2
   6  -7  -5 34502.7 2264.00   3
  -6  -7   4 11759.0 1116.41  19
  -6  -7   4 11176.2 635.599  20
  -6   7   4 10823.0 1450.44   2
   6  -7  -4 13162.7 1590.29   3
   6   7  -4 11128.1 1128.22  18
  -6   7   3 174378. 3211.98   1
  -6  -7   3 174878. 3990.49  19
   6   7  -3 178806. 3947.04  18
   6  -7  -3 168811. 5337.36   3
  -6   7   3 176832. 6437.60   2
  -6   7   2 53.6105 107.715   1
   6  -7  -2 4.95162 192.715   3
   6   7  -2 178.587 206.185  18
  -6  -7   2 126.775 147.573  19
  -6   7   1 135532. 2784.75   1
  -6  -7   1 129174. 3184.55  19
   6   7  -1 133859. 3019.36  18
  -6   7   0 23385.2 1170.20   1
  -6  -7   0 24055.0 1360.74  19
   6  -7   0 25064.6 1689.12   3
   6   7   0 22475.5 1208.31  18
  -6   7  -1 7844.44 695.994   1
  -6  -7  -1 7952.78 783.140  19
   6  -7   1 7690.20 877.172   3
   6   7   1 7310.24 689.750  18
  -6   7  -2 36871.8 1542.19   1
  -6  -7  -2 38261.2 1705.50  19
   6  -7   2 36036.4 1851.24   3
   6   7   2 38163.7 1570.85  18
  -6  -7  -3 108853. 1412.04   7
  -6   7  -3 103404. 2671.93   1
  -6  -7  -3 111389. 2954.30  19
   6  -7   3 104416. 3058.04   3
   6   7   3 104560. 2629.43  18
  -6  -7  -4 1268.98 170.036   7
  -6  -7  -4 1181.09 160.400   6
  -6   7  -4 1834.89 387.665   1
   6  -7   4 1672.55 422.196   3
  -6   7  -4 2036.03 660.823   4
   6   7   4 949.431 269.625  18
  -6  -7  -4 1572.82 384.895  19
  -6  -7  -5 161311. 1807.21   7
  -6  -7  -5 160776. 1790.70   6
  -6   7  -5 159549. 2190.36   5
  -6   7  -5 160381. 3565.16   1
  -6   7  -5 158385. 6393.54   4
   6   7   5 168827. 3496.56  18
   6   7   6 1414.72 343.440  18
   6  -7   6 1829.39 441.039  17
  -6  -7  -6 1938.45 376.092  16
  -6   7  -6 1949.18 231.651  15
  -6  -7  -6 1862.24 210.134   7
  -6  -7  -6 2140.71 228.472   6
   6  -7   6 1960.87 211.441  20
  -6   7  -6 1684.18 383.665   1
   6  -7   6 2449.31 429.734   3
  -6   7  -6 1879.93 658.691   4
  -6   7  -6 1603.80 255.095   5
   6  -7   7 488.935 233.371  17
  -6  -7  -7 1138.98 317.924  16
  -6   7  -7 810.471 149.974  15
  -6  -7  -7 666.259 140.880   7
  -6  -7  -7 772.771 154.439   6
  -6   7  -7 705.698 184.794   5
  -6   7  -7 363.245 186.649   1
  -6   7  -7 195.946 254.209   4
   6   7   7-142.861 195.360  18
  -6   7  -7 615.257 160.987  12
  -6  -7  -8 36918.7 929.271   7
  -6  -7  -8 38514.0 958.586   6
  -6   7  -8 35855.0 892.367  15
  -6  -7  -8 33623.2 1701.36  16
  -6   7  -8 35696.6 1227.53   5
  -6   7  -8 38268.3 1020.40  12
  -6   7  -8 36194.5 933.399   9
  -6  -7  -9 126824. 1751.66   7
  -6  -7  -9 128909. 1778.84   6
  -6   7  -9 126265. 1621.38  15
  -6   7  -9 130512. 1827.73  12
  -6   7  -9 125500. 1688.51   9
  -6  -7 -10 5872.89 387.597   7
  -6  -7 -10 6194.20 405.256   6
  -6   7 -10 5789.02 338.024  15
  -6   7 -10 5277.30 539.478   5
  -6   7 -10 6439.88 388.142   9
  -6   7 -10 6712.23 412.129  12
  -6   7 -11 41286.4 823.135  15
  -6   7 -11 40504.9 945.898  12
  -6  -7 -11 43338.5 1021.75   7
  -6  -7 -11 41080.8 1034.33   6
  -6   7 -11 39395.7 942.714   9
  -6   7 -12 556.743 140.281  12
  -6  -7 -12 556.945 153.796   6
  -6  -7 -12 522.501 144.894   7
  -6   7 -12 624.071 147.827   9
  -6  -7 -13 129.967 100.464   7
  -6   7 -13 89.1644 92.4044  12
  -6  -7 -13 262.497 125.392   6
  -6  -7 -14 1860.95 213.906   7
  -6  -7 -14 2173.56 249.777   6
  -6   7 -14 2142.14 187.601  12
  -6  -7 -15 44110.4 912.412   7
  -6   7 -15 40603.6 639.896  12
   6   8 -15 1602.98 108.735  13
  -6   8  15 1742.48 121.767   5
   6  -8 -15 1744.46 112.357   6
   6   8 -15 1653.54 104.844   9
   6   8 -14 51621.3 706.107  13
   6   8 -14 53263.3 673.660   9
  -6   8  13 6779.22 328.458  13
   6   8 -13 6837.66 277.743   9
   6   8 -13 6826.82 296.131  13
   6   8 -12 23757.1 559.926   9
   6   8 -12 25087.2 623.946  13
  -6   8  12 25096.3 760.518  13
   6   8 -11 15393.6 491.235   9
   6   8 -11 15670.4 544.505  13
   6   8 -10 5345.39 306.215   9
   6   8 -10 5745.56 364.904  13
   6   8  -9 2613.06 231.111   9
  -6  -8   9 2725.12 300.720  20
   6   8  -9 2876.21 291.566  13
  -6  -8   8 65639.8 1485.93  20
   6   8  -8 62225.8 1413.06  13
   6   8  -7 622.421 178.671  13
   6  -8  -7 576.202 301.765  16
  -6  -8   7 553.880 188.217  20
   6   8  -7 857.465 303.342  18
  -6  -8   7 160.530 293.682  19
  -6  -8   6 100683. 3799.96  19
  -6  -8   6 103458. 2107.71  20
   6   8  -6 99526.3 1896.53  13
  -6   8   6 101044. 3872.94   2
   6   8  -6 109493. 3865.22  18
   6   8  -5 80679.3 1600.72  13
   6   8  -5 85021.7 3595.01  18
  -6  -8   5 83804.1 3236.95  19
  -6  -8   5 77867.9 1757.62  20
  -6   8   5 80967.5 3813.90   2
   6  -8  -5 79549.8 3557.19   3
   6   8  -4 24864.8 841.300  13
  -6   8   4 23541.0 1198.00   5
   6   8  -4 23082.6 1702.31  18
  -6  -8   4 24161.3 1634.01  19
  -6  -8   4 23516.4 936.635  20
   6  -8  -4 24337.4 2318.94   3
  -6   8   4 19924.9 2197.58   2
   6   8  -3 10386.1 524.174  13
  -6   8   3 10483.2 641.195  13
   6   8  -3 10875.7 1041.26  18
  -6   8   3 10727.7 820.822   5
  -6  -8   3 10709.7 1029.54  19
  -6  -8   3 10696.8 632.272  20
  -6   8   3 9377.81 1560.54   2
   6  -8  -3 10506.3 1442.27   3
  -6   8   2 147024. 2189.51  13
  -6   8   2 146332. 3016.04   1
   6   8  -2 159509. 3669.36  18
  -6   8   2 153184. 2762.92   5
  -6  -8   2 145764. 3650.41  19
  -6  -8   2 141664. 2249.54  20
   6  -8  -2 160993. 5135.05   3
  -6   8   1 7794.22 476.091  13
  -6   8   1 6771.40 659.929   1
   6   8  -1 6764.08 727.193  18
  -6   8   1 6974.15 543.781   5
  -6  -8   1 6464.95 756.282  19
  -6  -8   1 6266.08 475.930  20
   6  -8  -1 6799.82 971.991   3
  -6   8   0 49146.2 1136.76  13
  -6   8   0 46161.6 1717.42   1
   6   8   0 48288.3 1902.44  18
  -6   8   0 48419.6 1329.58   5
  -6  -8   0 48997.2 2033.84  19
   6  -8   0 46719.0 2422.42   3
  -6  -8  -1 13637.0 474.365   6
  -6   8  -1 13565.2 580.876  13
  -6   8  -1 13972.7 975.697   1
   6   8   1 13993.9 1008.99  18
  -6   8  -1 13650.6 679.293   5
  -6  -8  -1 14250.9 1093.47  19
   6  -8   1 14039.1 1272.83   3
   6  -8   2 3721.44 599.061   3
  -6  -8  -2 3155.73 295.104  14
  -6   8  -2 3793.31 307.392  13
  -6   8  -2 3857.70 535.296   1
   6   8   2 3882.52 544.927  18
  -6   8  -2 3407.59 335.770   5
  -6  -8  -2 3515.43 547.655  19
  -6  -8  -2 3606.64 253.756   6
  -6  -8  -2 4518.69 314.797   7
  -6  -8  -3 10230.6 437.419   6
  -6  -8  -3 10619.3 472.722   7
  -6   8  -3 9940.96 477.868  13
  -6   8  -3 10681.2 902.705   1
   6   8   3 11446.1 928.795  18
  -6   8  -3 10129.6 561.764   5
   6  -8   3 11529.5 1062.45   3
  -6  -8  -3 10867.6 984.791  19
  -6  -8  -4 131348. 1662.34   7
  -6  -8  -4 132723. 1599.21   6
  -6   8  -4 136708. 1704.27  13
  -6  -8  -4 136617. 3536.08  19
  -6   8  -4 127181. 1997.91   5
  -6   8  -4 127849. 3207.83   1
   6   8   4 130002. 3176.20  18
   6  -8   4 131581. 3527.46   3
   6  -8   5 371.074 180.717   3
  -6   8  -5 588.492 487.672   4
  -6  -8  -5 529.662 133.900   7
   6  -8   5 632.483 139.484  20
  -6  -8  -5 697.372 142.084   6
  -6   8  -5 713.981 174.377   5
   6  -8   5 576.677 251.102  17
  -6   8  -5 703.120 311.313   1
   6   8   5 607.603 267.324  18
   6   8   6 97137.3 2853.94  18
   6  -8   6 102837. 3320.94  17
  -6   8  -6 99362.9 1565.33  15
  -6  -8  -6 101495. 1507.73   7
  -6  -8  -6 100656. 1482.18   6
   6  -8   6 105166. 1511.50  20
  -6   8  -6 101598. 1862.13   5
  -6   8  -6 102576. 5014.79   4
   6  -8   6 95867.0 2846.18   3
  -6   8  -6 99812.4 3031.85   1
  -6   8  -7 9211.01 526.717  12
  -6   8  -7 9397.15 468.976  15
  -6   8  -7 8961.43 586.218   5
  -6  -8  -7 9550.97 480.286   7
  -6  -8  -7 9547.19 477.138   6
   6  -8   7 9300.87 442.219  20
  -6  -8  -8 52930.1 1121.82   7
  -6  -8  -8 53398.5 1131.18   6
  -6   8  -8 51801.8 1048.65  15
  -6   8  -8 51643.8 1462.63   5
  -6   8  -8 53336.8 1142.84   9
  -6  -8  -9 2484.43 255.343   7
  -6  -8  -9 2492.07 263.340   6
  -6   8  -9 2649.25 235.541  15
  -6   8  -9 2657.60 373.279   5
  -6   8  -9 2311.58 261.506  12
  -6   8  -9 2178.08 238.690   9
  -6  -8 -10 67655.7 1273.63   7
  -6  -8 -10 68542.9 1293.77   6
  -6   8 -10 66581.7 1046.19  15
  -6   8 -10 70957.2 1248.14  12
  -6   8 -10 67308.3 1213.80   9
  -6   8 -11 1241.55 180.625  12
  -6  -8 -11 1181.62 187.742   6
  -6  -8 -11 1527.82 211.150   7
  -6   8 -11 1247.82 181.216   9
  -6   8 -12 11510.0 500.959   9
  -6  -8 -12 12691.1 560.317   6
  -6  -8 -12 12141.8 528.320   7
  -6   8 -12 12315.8 464.568  12
  -6   8 -13 9117.13 444.150   9
  -6  -8 -13 9341.24 453.444   7
  -6  -8 -13 9297.95 484.315   6
  -6   8 -13 9652.37 372.245  12
  -6  -8 -14 6648.90 381.177   6
  -6  -8 -14 6987.48 377.621   7
  -6   8 -14 6448.10 269.524  12
  -6  -8 -15 10222.1 412.580   7
   6   9 -14 1446.05 109.890  13
  -6   9  14 1244.41 113.490   5
   6  -9 -14 1493.01 124.618   6
   6   9 -14 1461.19 97.4868   9
   6   9 -13 45517.0 691.487  13
   6   9 -13 45120.5 608.524   9
  -6   9  13 44629.3 738.651   5
   6   9 -12 15588.7 457.212  13
  -6   9  12 14333.7 514.626  13
   6   9 -12 14776.1 395.819   9
  -6   9  11 6521.69 422.555  13
   6   9 -11 6610.21 336.984  13
   6   9 -11 6649.09 289.166   9
  -6   9  10 7093.78 518.852  13
   6   9 -10 6577.22 375.540  13
   6   9 -10 6532.10 309.146   9
  -6  -9   9 20646.1 747.624  20
  -6   9   9 18349.6 959.104  13
   6   9  -9 20273.1 720.849  13
  -6  -9   8 4025.62 378.337  20
  -6   9   8 3786.56 541.769  13
   6   9  -8 3661.35 355.415  13
  -6  -9   7 61267.4 1585.60  20
   6   9  -7 60526.1 1547.06  13
  -6   9   6 12775.0 725.944   5
   6   9  -6 12993.4 698.202  13
  -6   9   6 12736.8 997.163  13
  -6  -9   6 11969.6 745.991  20
  -6  -9   5 13488.4 1345.60  19
  -6  -9   5 14726.8 793.039  20
  -6   9   5 12391.6 786.020   5
   6   9  -5 14128.1 1562.77  18
   6   9  -5 14035.5 690.256  13
  -6   9   5 15031.3 959.064  13
   6  -9  -5 11703.6 1369.08  16
  -6   9   5 12743.6 1648.65   2
   6   9  -4 36305.7 1039.91  13
  -6   9   4 40297.4 1409.84  13
  -6   9   4 34427.4 1464.85   5
   6   9  -4 35055.7 2174.45  18
  -6  -9   4 35213.7 2044.28  19
  -6  -9   4 34029.5 1170.68  20
  -6   9   4 35620.9 3140.78   2
   6  -9  -4 35826.5 2764.55   3
   6   9  -3 85630.6 1538.45  13
  -6   9   3 92704.4 1940.83  13
   6   9  -3 89047.6 3151.98  18
  -6   9   3 90552.4 2467.04   5
  -6  -9   3 86303.3 3049.06  19
  -6  -9   3 81311.2 1749.77  20
   6  -9  -3 88670.0 4315.63   3
  -6   9   2 4199.59 400.174  13
  -6   9   2 4581.60 553.898   1
   6   9  -2 4819.20 687.908  18
  -6   9   2 5289.89 549.897   5
  -6  -9   2 4183.29 655.717  19
  -6  -9   2 3950.19 391.252  20
   6  -9  -2 4874.59 935.109   3
  -6   9   1 81342.4 1603.76  13
  -6   9   1 77165.8 2281.61   1
   6   9  -1 88106.6 2768.33  18
  -6   9   1 84418.8 2007.19   5
  -6  -9   1 83043.1 2824.91  19
  -6  -9   1 76924.4 1712.58  20
   6  -9  -1 85909.8 3732.87   3
  -6   9   0 10160.6 547.115  13
  -6   9   0 9380.82 815.689   1
   6   9   0 10452.1 941.278  18
  -6   9   0 10387.9 662.034   5
  -6  -9   0 10659.3 1005.58  19
  -6  -9   0 9584.33 614.564  20
   6  -9   0 11541.6 1291.32   3
   6  -9   1 4471.81 758.141   3
  -6  -9  -1 4912.11 391.548  14
  -6   9  -1 4471.13 360.105  13
  -6   9  -1 3430.97 524.796   1
   6   9   1 4483.45 619.120  18
   6  -9   1 3557.78 614.316  19
  -6   9  -1 3479.73 375.232   5
  -6  -9  -1 4405.30 629.641  19
  -6  -9  -1 4156.44 272.538   6
  -6  -9  -2 28129.7 708.680   6
  -6   9  -2 28807.3 860.622  13
  -6   9  -2 26688.8 1443.46   1
   6   9   2 31336.2 1603.99  18
   6  -9   2 29451.6 1684.83  19
  -6   9  -2 30104.3 1030.57   5
   6  -9   2 29259.4 1853.32   3
  -6  -9  -2 30068.1 1680.72  19
  -6  -9  -3 72395.5 1173.59   6
  -6  -9  -3 74294.4 1315.66   7
  -6   9  -3 72606.9 1324.88  13
  -6   9  -3 69931.5 2397.09   1
   6   9   3 75710.0 2505.56  18
  -6   9  -3 70475.2 1552.88   5
  -6  -9  -3 73657.4 2665.96  19
   6  -9   3 77683.0 2904.10   3
   6  -9   4 350.386 241.441  17
  -6  -9  -4 1209.42 172.553   6
  -6  -9  -4 1042.72 169.976   7
  -6   9  -4 880.352 151.977  13
  -6   9  -4 1036.98 325.897   1
   6  -9   4 1147.16 182.919  20
  -6   9  -4 1251.20 219.444   5
   6   9   4 736.606 248.100  18
   6  -9   4 1326.27 369.879   3
  -6   9  -4 698.678 417.691   4
  -6   9  -5 79514.0 1657.11   5
  -6   9  -5 77509.5 1303.32  13
   6  -9   5 76722.5 1356.05  20
  -6  -9  -5 79032.3 1355.00   7
  -6  -9  -5 79153.2 1291.53   6
  -6  -9  -6 4470.85 327.333   6
  -6  -9  -6 4508.83 340.526   7
  -6   9  -6 4754.81 423.456   5
  -6   9  -6 4734.27 345.153  15
   6  -9   6 4670.57 332.774  20
  -6  -9  -7 413.711 126.933   7
  -6   9  -7 315.474 144.429  12
  -6  -9  -7 362.302 112.838   6
  -6   9  -7 433.392 162.224   5
   6  -9   7 450.844 120.807  20
  -6   9  -7 464.099 120.098  15
  -6  -9  -8 35838.4 926.269   7
  -6  -9  -8 35771.5 915.548   6
  -6   9  -8 36892.9 964.637  12
  -6   9  -8 37186.8 938.967   9
  -6   9  -8 35275.5 1202.59   5
   6  -9   8 36359.6 824.760  20
  -6   9  -8 35343.2 824.394  15
  -6   9  -9 48191.0 1448.48   5
  -6  -9  -9 48824.5 1065.96   6
  -6  -9  -9 48241.7 1065.11   7
  -6   9  -9 48818.9 1043.86   9
  -6   9  -9 48231.7 1037.44  12
  -6   9 -10 4807.32 473.967   5
  -6  -9 -10 5422.90 362.043   7
  -6  -9 -10 5362.44 357.549   6
  -6   9 -10 5429.17 336.210  12
  -6   9 -10 5687.39 353.718   9
  -6  -9 -11 31327.5 839.913   7
  -6  -9 -11 31168.5 835.523   6
  -6   9 -11 30716.6 783.906   9
  -6   9 -11 32495.6 742.193  12
  -6  -9 -12 637.568 144.307   6
  -6  -9 -12 576.719 148.660   7
  -6   9 -12 427.959 115.828   9
  -6   9 -12 474.782 107.085  12
  -6  -9 -13-16.1715 112.476   6
  -6  -9 -13 112.920 87.1914   7
  -6   9 -13-110.348 85.1493  12
  -6   9 -13 12.4975 78.0730   9
  -6  -9 -14 10658.4 430.479   7
   6  10 -13 2086.39 134.607  13
   6 -10 -13 2228.30 163.246   6
  -6  10  13 1944.36 140.185   5
  -6  10  12 33601.4 638.450  13
   6  10 -12 33733.7 604.796  13
  -6  10  12 33791.1 660.501   5
   6  10 -11 5836.39 290.347  13
  -6  10  11 5493.16 340.902  13
  -6  10  11 5491.16 306.119   5
  -6  10  10 2893.58 301.966  13
   6  10 -10 3366.55 253.984  13
  -6  10  10 3388.44 271.845   5
   6  10  -9 12134.2 529.160  13
  -6  10   9 11769.5 718.079  13
  -6  10   9 12066.7 545.412   5
  -6  10   8 90022.8 1598.65   5
   6  10  -8 91279.1 1602.22  13
  -6 -10   8 92376.8 1647.39  20
  -6  10   7 2458.81 302.781   5
   6  10  -7 2610.46 317.704  13
  -6  10   7 2568.70 566.668  13
  -6 -10   7 2653.72 341.220  20
  -6  10   6 36236.1 1199.63   5
   6  10  -6 37383.9 1183.92  13
  -6  10   6 40026.2 1739.68  13
  -6 -10   6 39106.8 1324.23  20
  -6  10   5 28921.3 1181.17   5
   6  10  -5 29779.8 1005.48  13
  -6  10   5 32444.3 1422.63  13
  -6 -10   5 30500.9 1148.20  20
  -6  10   4 1173.64 298.899   5
  -6  10   4 787.651 227.294  13
   6  10  -4 871.274 194.700  13
  -6 -10   4 490.109 201.641  20
  -6  10   3 8804.35 812.065   5
   6  10  -3 8501.08 501.328  13
  -6  10   3 8189.53 608.205  13
  -6 -10   3 8064.43 579.840  20
  -6  10   2 117922. 2663.30   5
  -6  10   2 118102. 2110.13  13
  -6  10   1 15301.4 900.277   5
  -6 -10   1 14548.8 774.274  20
  -6  10   1 14667.0 708.802  13
  -6  10   0 71838.6 1814.35   5
  -6  10   0 67701.5 1450.83  13
  -6 -10   0 69329.6 1716.18  20
   6 -10   0 68197.3 2935.62  19
  -6  10  -1 5416.20 484.747   5
  -6  10  -1 4858.96 382.351  13
  -6  10  -2 20942.3 897.392   5
   6 -10   2 19518.2 747.441  20
  -6 -10  -2 18607.7 580.079   6
  -6  10  -2 20443.9 749.109  13
  -6  10  -3 20757.4 874.790   5
   6 -10   3 19916.1 734.514  20
  -6 -10  -3 19265.1 603.133   6
  -6  10  -3 19470.3 707.901  13
  -6  10  -4 78267.3 1671.70   5
   6 -10   4 77167.6 1406.01  20
  -6 -10  -4 74889.7 1214.30   6
  -6  10  -4 74190.5 1339.07  13
  -6  10  -5 291.873 113.515  13
  -6 -10  -5 503.781 130.226   6
  -6  10  -5 364.110 130.897   5
   6 -10   5 376.447 128.319  20
  -6  10  -5 384.985 126.957  15
  -6 -10  -5 320.069 132.300   7
  -6  10  -6 9673.90 454.700  13
   6 -10   6 9982.90 481.596  20
  -6  10  -6 10533.0 619.935   5
  -6 -10  -6 9704.21 459.878   6
  -6 -10  -6 10162.2 506.901   7
  -6  10  -6 10098.1 472.423  15
  -6 -10  -7 13012.3 536.385   6
  -6 -10  -7 13661.6 576.271   7
  -6  10  -7 14555.0 617.866  12
  -6  10  -7 13538.2 509.416  15
  -6  10  -7 13793.9 724.263   5
  -6  10  -7 14448.9 593.239   9
   6 -10   7 13725.1 532.944  20
  -6  10  -8 6986.05 405.005  12
   6 -10   8 7082.78 361.027  20
  -6  10  -8 7086.60 532.357   5
  -6  10  -8 6630.03 400.958   9
  -6 -10  -8 7085.03 394.518   6
  -6 -10  -8 6904.07 408.775   7
  -6 -10  -9 872.294 161.283   6
  -6  10  -9 928.719 230.527   5
  -6  10  -9 746.872 152.204   9
  -6 -10  -9 749.535 162.426   7
  -6  10  -9 808.250 144.284  12
  -6  10 -10 64731.4 1120.71   9
  -6 -10 -10 64195.3 1145.64   6
  -6 -10 -10 67391.0 1213.18   7
  -6  10 -10 66939.6 1054.61  12
  -6 -10 -11 78.8560 97.1352   6
  -6  10 -11 184.670 104.408   9
  -6 -10 -11 212.622 112.908   7
  -6  10 -11 150.272 82.4598  12
  -6  10 -12 9483.52 407.008   9
  -6  10 -12 9590.86 312.845  12
  -6 -10 -12 10002.5 445.957   6
  -6 -10 -12 9595.82 446.575   7
  -6 -10 -13 5405.62 311.767   6
   6 -11 -12 5896.05 261.189   6
  -6  11  12 5635.25 233.263   5
   6  11 -12 5663.03 214.812  13
  -6  11  11 14747.6 437.371   5
  -6  11  11 14051.3 424.405  13
   6  11 -11 14959.0 401.596  13
  -6  11  10 19315.1 565.661   5
  -6  11  10 18323.5 624.717  13
   6  11 -10 19203.2 521.445  13
  -6  11   9 51485.4 1023.33   5
  -6  11   9 51332.9 1274.20  13
   6  11  -9 53033.0 973.011  13
  -6  11   8 5941.96 395.263   5
  -6 -11   8 6648.40 411.841  20
  -6  11   8 5845.41 536.744  13
   6  11  -8 6266.30 387.527  13
  -6  11   7 76704.0 1504.40   5
  -6 -11   7 79781.5 1547.35  20
  -6  11   7 75961.0 2325.99  13
   6  11  -7 75277.3 1472.31  13
  -6  11   6 7362.28 521.323   5
   6 -11  -6 7913.57 556.008  20
  -6 -11   6 7684.53 536.776  20
   6  11  -6 7749.77 542.490  13
  -6  11   6 7935.35 797.629  13
  -6  11   5 1491.75 273.497   5
   6 -11  -5 887.358 253.413  20
  -6 -11   5 1523.76 292.988  20
  -6  11   5 1504.47 355.536  13
   6  11  -5 1101.99 215.194  13
  -6  11   4 46486.5 1586.48   5
   6 -11  -4 48915.7 1546.06  20
  -6 -11   4 48551.6 1444.78  20
   6  11  -4 49853.9 1251.76  13
  -6  11   4 52691.2 1655.55  13
  -6  11   3 15196.9 1047.64   5
   6 -11  -3 15910.1 843.483  20
  -6 -11   3 15360.3 805.207  20
   6  11  -3 16095.1 695.796  13
  -6  11   3 16648.5 871.528  13
  -6  11   2 245.400 217.899   5
   6 -11  -2 374.177 167.394  20
  -6 -11   2 316.511 165.423  20
  -6  11   2 538.146 194.466  13
  -6  11   1 95891.0 2286.21   5
   6 -11  -1 96126.5 1863.26  20
  -6 -11   1 96083.8 1989.03  20
  -6  11   1 91777.5 1801.17  13
  -6  11   0 19733.3 982.683   5
   6 -11   0 18801.0 798.405  20
  -6  11   0 18837.9 784.168  13
  -6  11  -1 580.992 173.909   5
  -6  11  -1 602.945 157.014  13
  -6  11  -2 12498.8 719.087   5
   6 -11   2 12650.6 610.809  20
  -6  11  -2 13505.0 612.816  13
  -6  11  -3 62253.8 1540.56   5
   6 -11   3 62897.6 1304.21  20
  -6 -11  -3 61394.5 1041.87   6
  -6  11  -3 60934.3 1259.21  13
  -6  11  -4 3597.90 376.712   5
   6 -11   4 3032.47 289.011  20
  -6 -11  -4 3077.86 247.787   6
  -6  11  -4 3450.35 295.524  13
  -6  11  -5 57798.3 1134.72  13
   6 -11   5 56651.5 1157.24  20
  -6  11  -5 57926.6 1436.53   5
  -6 -11  -5 58622.3 1054.89   6
  -6  11  -5 60012.7 1151.77  15
  -6 -11  -6 19549.5 616.220   6
  -6  11  -6 19338.9 635.818  13
  -6  11  -6 20164.3 741.836  12
  -6  11  -6 19939.0 608.995  15
  -6  11  -6 20080.7 705.490   9
   6 -11   6 20113.9 657.154  20
  -6  11  -6 20207.2 849.907   5
  -6  11  -7 310.760 120.546  12
  -6 -11  -7 221.417 95.6178   6
  -6  11  -7 341.055 148.288   5
  -6  11  -7 43.5603 136.793   9
   6 -11   7 293.218 89.8771  20
  -6  11  -8 25071.9 697.692  12
  -6 -11  -8 25456.4 695.338   6
  -6  11  -8 25102.7 947.266   5
  -6  11  -8 24763.3 719.505   9
   6 -11   8 24532.7 637.932  20
  -6 -11  -9 28247.5 716.856   6
  -6  11  -9 26701.4 648.830  12
  -6  11  -9 27820.4 724.759   9
  -6 -11 -10 1659.39 184.088   6
  -6  11 -10 1544.49 151.397  12
  -6  11 -10 1526.19 181.334   9
  -6  11 -10 1346.63 226.933   5
  -6 -11 -11 37335.3 794.366   6
  -6  11 -11 38463.6 582.170  12
  -6  11 -11 36890.5 770.145   9
  -6 -11 -12 331.258 97.6709   6
   6  12 -11 16892.9 351.901  13
  -6  12  11 17144.9 386.937   5
   6 -12 -11 17788.8 428.294   6
  -6  12  10 3592.25 213.911  13
   6  12 -10 3941.71 203.382  13
   6 -12 -10 4101.82 257.724   6
  -6  12  10 3580.65 216.539   5
  -6  12   9 10507.3 466.641  13
   6  12  -9 10498.8 372.839  13
  -6  12   9 10314.2 406.804   5
   6  12  -8 58940.6 985.047  13
  -6  12   8 59691.3 1080.38   5
  -6  12   7 2610.07 264.850   5
   6  12  -7 3027.27 257.932  13
  -6  12   7 2401.29 357.279  13
  -6 -12   7 3126.81 271.207  20
  -6  12   6 17256.5 713.663   5
  -6  12   6 18654.5 1169.39  13
   6  12  -6 18088.0 680.680  13
  -6 -12   6 16834.2 673.241  20
  -6  12   5 15233.2 742.635   5
   6  12  -5 16383.0 719.729  13
  -6  12   5 16925.6 1018.40  13
   6 -12  -5 15898.6 773.310  20
  -6 -12   5 15579.2 696.921  20
  -6  12   4 1064.98 214.293   5
   6  12  -4 604.789 164.781  13
  -6  12   4 1250.94 285.056  13
   6 -12  -4 1059.02 245.384  20
  -6 -12   4 984.275 199.612  20
  -6  12   3 23569.9 1138.14   5
   6  12  -3 24070.2 837.022  13
  -6  12   3 25755.4 1080.32  13
   6 -12  -3 24600.4 1038.72  20
  -6 -12   3 27566.9 984.396  20
  -6  12   2 61668.2 1954.24   5
  -6  12   2 59390.6 1534.62  13
   6 -12  -2 56500.1 1502.85  20
  -6 -12   2 58737.2 1395.67  20
  -6  12   1 6703.92 618.484   5
  -6  12   1 6840.50 503.895  13
   6 -12  -1 7268.28 523.130  20
  -6 -12   1 6649.31 452.859  20
  -6  12   0 42005.5 1430.02   5
  -6  12   0 41011.7 1150.65  13
   6 -12   0 39115.1 1139.24  20
  -6  12  -1 30404.4 1159.92   5
  -6  12  -1 29593.8 941.422  13
   6 -12   1 29977.7 957.086  20
  -6  12  -2 16514.4 821.622   5
   6 -12   2 15795.0 671.612  20
  -6  12  -2 14523.1 635.506  13
  -6  12  -3 5468.92 466.051   5
  -6 -12  -3 5712.75 302.731   6
   6 -12   3 6146.40 412.261  20
  -6  12  -3 5472.67 379.764  13
  -6  12  -4 50895.7 1085.28  13
  -6  12  -4 49874.0 1335.92   5
  -6  12  -4 50122.9 1037.52  15
   6 -12   4 51469.9 1105.60  20
  -6 -12  -4 49191.1 893.897   6
  -6 -12  -5 1826.90 182.345   6
  -6  12  -5 1880.85 274.618   5
   6 -12   5 1930.68 218.508  20
  -6  12  -5 1998.69 218.529  13
  -6  12  -6 11189.8 471.175  13
  -6  12  -6 11525.8 510.732  12
  -6 -12  -6 11608.5 438.064   6
  -6  12  -6 11509.2 623.971   5
  -6  12  -6 11871.6 513.216   9
   6 -12   6 11696.8 478.684  20
  -6  12  -7 5109.66 309.301  12
  -6 -12  -7 5071.37 291.244   6
  -6  12  -7 5311.43 422.859   5
  -6  12  -7 5578.34 342.351   9
   6 -12   7 5424.33 307.952  20
  -6  12  -8 3487.51 230.227  12
  -6 -12  -8 3604.95 244.785   6
  -6  12  -8 3706.74 351.723   5
  -6  12  -8 3299.52 253.492   9
   6 -12   8 3321.76 223.736  20
  -6 -12  -9 5159.11 282.172   6
  -6  12  -9 5026.22 240.938  12
  -6  12  -9 4948.41 290.813   9
  -6  12  -9 4913.71 376.098   5
  -6 -12 -10 41973.9 774.552   6
  -6  12 -10 41931.8 786.702   9
  -6 -12 -11 888.975 125.121   6
   6  13 -10 22043.1 356.930  13
  -6  13  10 21123.9 388.727   5
  -6  13   9 8651.49 289.907  13
   6  13  -9 9000.02 273.442  13
  -6  13   9 9323.24 314.638   5
   6 -13  -9 9554.22 330.592   6
   6  13  -8 112.330 56.3603  13
  -6  13   8 176.526 86.4129  13
   6 -13  -8 310.862 102.621   6
  -6  13   8 195.279 80.3132   5
   6  13  -7 29410.2 622.301  13
  -6  13   7 28180.7 869.242  13
   6 -13  -7 28427.8 772.113   6
  -6  13   7 29374.3 717.788   5
  -6  13   6 14421.4 771.597  13
   6  13  -6 14859.8 488.162  13
   6 -13  -6 13048.3 598.106   6
  -6  13   6 13914.7 552.987   5
  -6  13   5 4007.78 496.854  13
   6  13  -5 4358.90 291.621  13
  -6  13   5 4285.49 345.267   5
   6 -13  -5 4093.55 290.264  20
  -6 -13   5 4213.97 298.203  20
  -6  13   4 7597.32 625.247  13
   6  13  -4 7659.01 404.771  13
  -6  13   4 7912.12 510.408   5
   6 -13  -4 7710.99 499.840  20
  -6 -13   4 7705.79 413.431  20
  -6  13   3 17786.7 883.776  13
   6  13  -3 16945.7 614.833  13
  -6  13   3 14540.7 751.225   5
   6 -13  -3 15951.6 816.269  20
  -6 -13   3 16391.5 606.849  20
  -6  13   2 7403.52 540.085  13
  -6  13   2 6285.70 561.933   5
   6 -13  -2 6610.83 511.742  20
  -6 -13   2 6484.06 377.154  20
  -6  13   1 52156.3 1337.88  13
  -6  13   1 54144.5 1655.09   5
   6 -13  -1 47112.2 1289.03  20
  -6 -13   1 47215.8 946.829  20
  -6  13   0 18619.4 764.681  13
  -6  13   0 17666.3 904.635   5
   6 -13   0 19048.5 782.718  20
  -6  13  -1 1267.08 202.414  13
  -6  13  -1 1463.60 277.845   5
   6 -13   1 1490.53 242.810  20
  -6  13  -2 28568.9 859.939  13
   6 -13   2 29592.9 886.651  20
  -6  13  -2 29953.5 1069.83   5
  -6  13  -3 49766.0 1322.69   5
  -6  13  -3 48593.3 980.206  15
  -6  13  -3 49523.7 1074.96  13
   6 -13   3 48921.1 1076.58  20
  -6  13  -4 334.623 114.668  13
  -6  13  -4 302.296 143.844   5
  -6  13  -4 216.049 109.609   9
   6 -13   4 276.752 108.153  20
  -6 -13  -5 41583.7 738.831   6
  -6  13  -5 43692.4 952.503  12
  -6  13  -5 40718.2 890.887  13
  -6  13  -5 41937.7 1141.73   5
  -6  13  -5 43609.7 939.084   9
   6 -13   5 40967.7 881.511  20
  -6 -13  -6 3122.41 207.224   6
  -6  13  -6 3654.62 256.042  12
  -6  13  -6 3161.11 244.976  13
  -6  13  -6 2663.36 293.117   5
  -6  13  -6 3149.26 258.610   9
   6 -13   6 3383.25 246.422  20
  -6 -13  -7 740.234 112.610   6
  -6  13  -7 881.895 179.586   5
   6 -13   7 651.671 111.584  20
  -6  13  -7 647.285 120.455   9
  -6  13  -7 791.318 110.899  12
  -6  13  -8 17852.6 395.415  12
  -6  13  -8 17548.1 645.450   5
   6 -13   8 18694.3 470.399  20
  -6 -13  -8 18358.6 469.325   6
  -6  13  -8 19029.2 533.202   9
  -6 -13  -9 13066.6 384.819   6
  -6  13  -9 13158.4 420.451   9
  -6  14   8 16122.0 349.423   5
  -6  14   7 4654.63 238.550  13
   6  14  -7 4690.78 180.006  13
  -6  14   7 4622.04 225.229   5
  -6  14   6 26065.5 706.790  13
   6  14  -6 26313.0 464.145  13
  -6  14   6 26251.7 599.061   5
  -6  14   5 12427.7 602.146  13
   6  14  -5 11780.2 333.980  13
  -6  14   5 12645.7 464.557   5
  -6  14   4 8854.78 639.785  13
   6 -14  -4 7943.57 337.562  20
  -6  14   4 8063.59 410.490   5
  -6  14   3 4868.54 453.863  13
   6 -14  -3 3986.65 305.849  20
  -6  14   3 4045.24 323.240   5
   6 -14  -2 36012.0 1112.02  20
  -6  14   2 34163.7 983.566   5
  -6  14   1 3852.01 368.835  13
   6 -14  -1 3277.36 330.368  20
  -6  14   1 2804.42 320.346   5
  -6  14   0 19362.5 745.121  13
   6 -14   0 18054.9 728.341  20
  -6  14   0 18409.4 842.641   5
  -6  14  -1 32203.1 907.904  13
   6 -14   1 31921.9 911.471  20
  -6  14  -1 32328.4 1077.06   5
  -6  14  -2 3545.47 297.639  13
   6 -14   2 4067.53 319.042  20
  -6  14  -2 3502.36 353.959   5
  -6  14  -3 8308.96 422.771  13
  -6  14  -3 8640.47 515.276   5
  -6  14  -3 8851.69 427.915   9
   6 -14   3 8805.42 432.715  20
  -6  14  -4 37192.3 840.654  13
  -6  14  -4 36066.9 1002.12   5
  -6  14  -4 38214.4 824.518  12
  -6  14  -4 40106.6 852.934   9
   6 -14   4 39093.4 849.069  20
  -6  14  -5 460.159 108.401  13
  -6  14  -5 311.866 119.807   5
  -6  14  -5 511.219 111.719  12
  -6  14  -5 302.718 101.456   9
   6 -14   5 472.112 103.845  20
  -6  14  -6 9658.97 379.759   9
   6 -14   6 9103.99 360.956  20
  -6  14  -6 9127.62 455.926   5
  -6  14  -7 5872.20 331.439   5
  -6  14  -7 6724.84 302.195   9
  -6  15   5 1822.99 141.425  13
  -6  15   5 1765.37 127.607   5
  -6  15   4 15277.8 484.345  13
  -6  15   4 15668.5 409.489   5
  -6  15   3 16259.0 594.854  13
  -6  15   3 16398.2 460.983   5
  -6  15   2 1187.80 205.978  13
   6 -15  -2 1285.10 133.655  20
  -6  15   2 1036.26 136.666   5
  -6  15   1 14759.4 636.931  13
  -6  15   1 13450.4 540.255   9
   6 -15  -1 13144.1 489.389  20
  -6  15   1 13168.2 475.428   5
  -6  15   0 15608.6 623.351  13
  -6  15   0 15557.7 568.592   9
   6 -15   0 14842.3 602.786  20
  -6  15   0 14969.9 525.631   5
  -6  15  -1 857.177 160.140  13
  -6  15  -1 940.299 151.175   5
  -6  15  -1 631.247 126.494   9
   6 -15   1 832.000 159.791  20
  -6  15  -2 19869.5 627.604  13
   6 -15   2 18781.0 612.655  20
  -6  15  -2 18879.0 569.234   9
  -6  15  -3 15242.2 525.535   5
   6 -15   3 15858.6 535.288  20
  -6  15  -3 16128.1 531.819  13
  -6  15  -3 16261.3 506.056   9
  -6  15  -4 144.946 73.5972   9
  -6  15  -4 150.331 74.7882   5
   7   0 -17 85249.4 867.972  10
   7   0 -17 83640.9 720.323   7
   7   0 -16-83.4999 81.0410   9
   7   0 -16 41.9080 62.6526  10
   7   0 -16-24.8310 72.8196   7
   7   0 -15 53585.1 875.695  13
   7   0 -15 56175.6 902.572   7
   7   0 -15 53226.6 878.765   9
   7   0 -15 52731.5 963.558  10
   7   0 -14-57.7618 111.994   9
   7   0 -14 101.329 100.113  10
   7   0 -14 19.8595 81.5603  13
   7   0 -13 35567.0 831.117  13
   7   0 -13 36595.4 826.240   9
   7   0 -13 35700.8 911.633  10
   7   0 -12 73.1693 98.5958   9
   7   0 -12-19.2603 90.3323  13
   7   0 -11 164529. 1849.88  13
   7   0 -11 165926. 1809.14   9
   7   0 -10 10.2937 99.6045   9
   7   0 -10 152.409 71.2769  13
  -7   0   9 51308.1 2034.29  17
   7   0  -9 51754.2 1009.47  13
   7   0  -9 50815.1 975.741   9
   7   0  -8-439.150 204.774  18
   7   0  -8-2.94639 62.0300  13
  -7   0   8-317.222 196.369  17
   7   0  -8-12.0278 64.9417   9
   7   0  -7 13155.3 949.525  18
  -7   0   7 13726.9 1015.26  17
   7   0  -7 13916.6 792.005   3
  -7   0   7 16050.6 855.337   2
   7   0  -6-2.02721 121.611  18
  -7   0   6 139.715 92.0633   2
   7   0  -5 240640. 3649.43  18
   7   0  -5 245674. 3376.51   3
  -7   0   5 235346. 3091.64   2
   7   0  -4 1.98143 106.476   3
  -7   0   4 143.502 125.372   1
   7   0  -3 32426.3 1254.09  18
   7   0  -3 32105.4 1253.91   3
  -7   0   3 32984.0 1354.93   1
   7   0  -2-11.0411 91.8467  18
   7   0  -2-16.1243 83.9320   3
  -7   0   2 23.3230 111.100   1
   7   0  -1 93344.2 2079.39  18
   7   0  -1 91122.2 2230.22   3
  -7   0   1 92073.7 1684.39   4
  -7   0   1 90460.9 2526.07   1
   7   0   0 173.072 143.272  18
   7   0   0-262.098 163.283   3
  -7   0   0-15.8061 78.8748   4
  -7   0   0 106.589 199.740   1
  -7   0  -1 333310. 5703.52   1
  -7   0  -1 324022. 3913.56   4
   7   0   1 333423. 4864.31   3
  -7   0  -2-115.461 334.582   1
   7   0   2 121.926 214.052   3
  -7   0  -2-28.1923 176.903   4
  -7   0  -3 52334.3 2372.27   1
   7   0   3 52562.8 2471.61   3
  -7   0  -3 48958.1 1913.00   4
  -7   0  -4-48.6399 157.479   4
   7   0   4-158.920 168.922   3
  -7   0  -5 20012.5 1607.70   1
   7   0   5 19578.1 1177.56   3
  -7   0  -5 18295.9 1559.47   4
  -7   0  -6-694.271 431.904   1
  -7   0  -6-109.165 453.164   4
   7   0   6-354.121 166.089   3
   7   0   7 203845. 3632.79  17
  -7   0  -7 201196. 5757.06   4
  -7   0  -8 90.3107 123.534  12
  -7   0  -8 63.0088 78.0697  10
  -7   0  -8 65.0269 85.6293  11
  -7   0  -8 142.143 84.7919   8
  -7   0  -8-6.01482 98.4363  14
  -7   0  -8-6.29712 122.685  15
  -7   0  -9 18253.6 658.264  11
  -7   0  -9 17622.0 780.379  12
  -7   0  -9 19934.3 720.459  15
  -7   0  -9 18865.2 661.640  14
  -7   0  -9 18172.9 1725.03   4
  -7   0  -9 18214.7 642.327  10
  -7   0 -10-13.1808 102.692  11
  -7   0 -10 8.00008 131.071  12
  -7   0 -10 59.1190 85.2680  10
  -7   0 -10 15.6239 95.5509  15
  -7   0 -10-10.4270 106.929  14
  -7   0 -10-352.782 237.916   4
  -7   0 -11 61797.7 1248.10  10
  -7   0 -11 62109.8 1210.88  14
  -7   0 -11 61963.4 1279.30  15
  -7   0 -11 60314.0 1203.41  11
  -7   0 -11 60455.0 1470.74  12
  -7   0 -12-23.3558 93.1499  10
  -7   0 -12 219.224 116.866  15
  -7   0 -12-49.9986 170.292  12
  -7   0 -12 118.389 109.234  11
  -7   0 -13 91232.0 1507.94  10
  -7   0 -13 89519.5 1451.74  15
  -7   0 -13 92770.7 1780.73  12
  -7   0 -14 126.940 124.715  10
  -7   0 -14 184.344 137.949  15
  -7   0 -14-199.158 248.035  12
  -7   0 -15 15472.2 591.550  10
  -7   0 -15 15542.1 652.213  12
  -7   0 -16 1387.79 252.980  12
  -7   0 -16 50.8602 92.3237  10
   7   1 -17 29.2441 43.2458   7
  -7   1  17-1.59245 35.8036   8
   7   1 -17 75.5896 47.7490  10
   7  -1 -17 89.5067 57.9169  10
   7  -1 -16 61038.2 759.017   7
   7   1 -16 61555.2 834.456   7
   7   1 -16 58780.1 775.765  13
   7   1 -16 59414.2 809.289   9
   7   1 -16 58815.9 864.668  10
   7  -1 -16 58990.7 894.287  10
   7  -1 -15 3087.55 209.740   7
   7   1 -15 2956.79 212.636  13
   7   1 -15 2889.91 210.364   9
   7  -1 -15 2875.61 216.255   9
   7   1 -15 2965.13 234.508  10
   7  -1 -15 3100.35 248.051  10
   7  -1 -14 1038.29 146.135  13
   7   1 -14 882.695 138.441  13
   7   1 -14 855.054 151.692  10
   7  -1 -14 1096.52 173.402  10
   7  -1 -14 765.304 136.924   9
   7   1 -14 805.644 129.153   9
   7   1 -13 2917.93 245.470  13
   7  -1 -13 2883.53 250.799  13
   7  -1 -13 2828.62 249.026   9
   7   1 -13 2992.58 246.739   9
   7  -1 -13 3103.55 284.733  10
   7   1 -13 3005.65 276.351  10
   7  -1 -12 76825.5 1277.26  13
   7   1 -12 78379.3 1249.40  13
   7  -1 -12 76920.1 1253.95   9
   7   1 -12 76841.1 1204.20   9
   7  -1 -11 159.668 95.1287   9
   7   1 -11 157.910 98.2216   9
   7  -1 -11 268.386 92.0120  13
   7   1 -11 48.2878 89.4427  13
   7   1 -10 117467. 1479.89   9
   7  -1 -10 112024. 1504.12   9
  -7   1  10 111496. 2663.34   2
  -7  -1  10 125370. 3195.81  17
   7  -1 -10 109114. 3062.31  16
   7  -1 -10 120122. 1604.88  13
   7   1 -10 121532. 1538.88  13
   7   1  -9 1280.82 159.756   9
   7  -1  -9 1387.26 168.551   9
  -7   1   9 1189.39 275.734   2
   7   1  -9 1313.75 353.838  18
  -7  -1   9 943.218 299.842  17
   7   1  -9 1241.94 161.265  13
   7  -1  -9 1561.79 187.253  13
  -7   1   8 4475.52 503.830   2
   7   1  -8 4358.87 279.892   9
   7  -1  -8 4579.40 299.845   9
   7  -1  -8 4646.23 311.449  13
   7   1  -8 4567.98 289.606  13
   7   1  -8 5296.91 631.030  18
  -7  -1   8 4944.61 614.184  17
  -7   1   7 13642.8 836.335   2
   7   1  -7 13083.8 930.271  18
  -7  -1   7 13084.6 964.476  17
   7  -1  -7 11398.7 918.758  18
   7  -1  -7 12385.2 767.788   3
   7   1  -7 11593.7 728.334   3
  -7   1   6 276081. 3661.29   2
   7   1  -6 240471. 3813.06  18
  -7  -1   6 262985. 4252.63  17
   7  -1  -6 249047. 4039.96  18
   7   1  -6 258966. 3425.14   3
   7  -1  -6 261208. 3565.44   3
  -7   1   5 9978.64 700.737   2
   7  -1  -5 9411.55 757.292  18
   7   1  -5 9197.59 729.551  18
   7  -1  -5 10248.8 715.691   3
  -7   1   4 253529. 3738.49   1
  -7   1   4 238321. 3547.76   2
   7  -1  -4 250629. 3692.41  18
   7   1  -4 243221. 3704.54  18
   7  -1  -4 252732. 3648.09   3
  -7   1   3 1303.39 313.698   2
  -7   1   3 1437.82 319.174   1
   7   1  -3 1367.59 294.812  18
   7  -1  -3 1272.22 259.005  18
   7  -1  -3 2013.65 337.188   3
  -7   1   2 7947.74 799.493   1
  -7  -1   2 10039.6 739.901   1
   7  -1  -2 8049.73 612.023  18
   7   1  -2 7380.42 678.973  18
  -7   1   2 8165.94 485.245   4
   7  -1  -2 8150.78 699.803   3
  -7   1   2 7561.99 845.211   2
  -7   1   1 3986.47 660.109   1
  -7  -1   1 3520.81 465.664   1
   7  -1  -1 3950.87 418.672  18
   7   1  -1 2843.88 468.422  18
  -7   1   1 3597.97 359.776   4
   7  -1  -1 4039.87 515.365   3
  -7  -1   1 3310.91 314.387   4
  -7  -1   0 142415. 3010.93   1
  -7   1   0 144993. 3607.93   1
   7  -1   0 137163. 2313.09  18
   7   1   0 132881. 3209.58  18
  -7   1   0 139362. 2407.17   4
   7  -1   0 143371. 3265.35   3
  -7  -1   0 138854. 2233.39   4
  -7  -1  -1 10745.0 864.354   1
  -7   1  -1 10518.6 952.998   1
   7   1   1 9497.23 787.893  18
  -7   1  -1 9145.43 682.630   4
  -7  -1  -1 9892.34 666.691   4
   7  -1   1 9317.45 958.772   3
  -7  -1  -2 254702. 4390.35   1
  -7   1  -2 254854. 4552.53   1
   7   1   2 244097. 3615.73  18
  -7   1  -2 246463. 3913.81   4
   7  -1   2 247830. 5452.87   3
  -7  -1  -2 258504. 3806.30   4
  -7  -1  -3 10617.2 952.537   1
  -7   1  -3 11249.7 971.570   1
  -7   1  -3 11704.2 953.863   4
   7   1   3 10910.6 1089.28   3
  -7  -1  -3 12559.1 948.014   4
   7  -1   3 11367.1 1072.98   3
  -7   1  -4 396.936 243.578   1
  -7  -1  -4 222.529 179.588   1
   7   1   4 664.853 310.055   3
  -7  -1  -4 494.225 235.295   4
  -7   1  -4 375.339 210.415   4
  -7  -1  -5 6707.81 821.807   1
  -7   1  -5 5953.26 775.282   1
  -7   1  -5 6674.24 971.218   4
   7  -1   5 5700.61 633.093   3
   7   1   5 6435.24 741.685   3
  -7  -1  -5 6326.70 908.526   4
  -7  -1  -6 147429. 3918.22   1
  -7   1  -6 140950. 3976.07   1
   7  -1   6 145481. 2866.19   3
  -7  -1  -6 144770. 4894.60   4
  -7   1  -6 137133. 4869.40   4
  -7   1  -7 6506.78 384.262  14
  -7  -1  -7 6890.74 392.782  14
  -7  -1  -7 6959.82 396.050   8
  -7  -1  -7 6650.02 384.602  11
  -7   1  -7 6910.06 393.615  11
  -7   1  -7 7667.56 386.853  10
  -7  -1  -7 6589.16 358.418  10
  -7   1  -7 7682.16 1035.03   1
  -7   1  -7 6645.95 411.294  15
  -7  -1  -7 6636.80 420.728  15
   7  -1   7 6468.43 677.031  17
  -7  -1  -7 7585.73 1137.93   4
  -7   1  -7 6890.24 1077.89   4
  -7  -1  -8 106124. 1567.34   8
  -7   1  -8 103348. 1792.55  12
  -7  -1  -8 103564. 1935.13  12
  -7   1  -8 106693. 1558.22  11
  -7  -1  -8 104394. 1544.13  11
  -7  -1  -8 106638. 1664.66  15
   7  -1   8 104128. 2802.94  17
  -7   1  -8 106380. 1625.02  15
  -7   1  -8 103607. 1468.94  10
  -7  -1  -8 105373. 1485.66  10
  -7   1  -8 107715. 1558.00  14
  -7  -1  -8 104048. 1532.89  14
  -7  -1  -8 107057. 4257.08   4
  -7   1  -8 103645. 4158.70   4
  -7   1  -9 346.519 127.927  12
  -7   1  -9 459.937 113.088  11
  -7  -1  -9 426.020 115.200  11
  -7  -1  -9 428.585 181.326  12
  -7  -1  -9 16.9795 151.398   4
  -7   1  -9 444.109 230.216   4
  -7  -1  -9 471.668 127.970  10
  -7   1  -9 483.052 130.308  10
  -7  -1  -9 451.636 109.731   7
  -7   1  -9 352.234 104.440  14
  -7   1  -9 454.476 120.598  15
  -7  -1  -9 327.202 135.925  15
  -7  -1  -9 393.158 117.562  14
  -7  -1 -10 1302.65 231.988  12
  -7   1 -10 555.179 166.526  12
  -7   1 -10 865.976 156.833  11
  -7  -1 -10 1128.00 166.337  11
  -7  -1 -10 1196.19 459.632   4
  -7   1 -10 183.375 173.136   4
  -7  -1 -10 1174.25 181.003  10
  -7   1 -10 673.729 142.011  10
  -7   1 -10 754.908 150.062  15
  -7   1 -10 837.917 163.686  14
  -7  -1 -10 579.478 145.530  15
  -7  -1 -10 1162.30 173.951  14
  -7  -1 -10 1025.41 154.860   7
  -7   1 -11 447.238 120.474  10
  -7  -1 -11 214.049 117.104  10
  -7  -1 -11 76.4381 88.3765  14
  -7   1 -11 85.8765 98.8563  14
  -7   1 -11 32.2195 109.154  15
  -7  -1 -11 38.4780 161.250  15
  -7  -1 -11 0.20025 98.4355  11
  -7   1 -11 76.5705 98.2448  11
  -7  -1 -11 163.328 155.862  12
  -7   1 -11 112.551 137.343  12
  -7  -1 -11 43.0941 82.9359   7
  -7   1 -12 41936.2 997.681  11
  -7   1 -12 44510.4 1208.76  12
  -7  -1 -12 39516.3 1250.11  12
  -7  -1 -12 41889.4 996.302  11
  -7  -1 -12 41030.3 953.358  14
  -7   1 -12 43976.7 1057.15  10
  -7  -1 -12 42425.7 1037.24  10
  -7  -1 -12 43354.6 1070.19  15
  -7   1 -12 41990.3 1021.07  15
  -7  -1 -12 40952.2 907.493   7
  -7   1 -13 4562.45 346.921  10
  -7  -1 -13 4561.20 346.565  10
  -7  -1 -13 4348.15 294.798   7
  -7  -1 -13 4409.60 343.310  15
  -7   1 -13 4227.51 323.961  15
  -7   1 -13 4450.62 407.459  12
  -7  -1 -13 4151.67 413.935  12
  -7  -1 -14 86986.2 1428.43  10
  -7   1 -14 87950.9 1444.83  10
  -7  -1 -14 84230.3 1198.86   7
  -7  -1 -14 83267.7 1357.41  15
  -7   1 -14 84689.2 1305.85  15
  -7   1 -14 89872.3 1618.77  12
  -7  -1 -14 92696.4 1748.34  12
  -7  -1 -15 6214.70 379.349  10
  -7   1 -15 6055.52 375.452  10
  -7  -1 -15 5590.54 288.588   7
  -7   1 -15 6083.31 400.286  12
  -7  -1 -15 6534.74 466.810  12
  -7   1 -16 12557.1 516.233  12
  -7  -1 -16 12714.0 509.017  10
  -7   1 -16 12342.4 502.077  10
   7  -2 -17 51358.4 661.848  10
   7   2 -17 52037.0 609.647   9
   7   2 -17 53521.8 612.836   7
   7   2 -16 86.5175 58.7391  10
   7  -2 -16 39.3411 68.1723  10
   7   2 -16 127.434 60.3772  13
   7   2 -16 126.675 67.6933   7
   7   2 -16 165.396 66.9592   9
   7   2 -15 47961.8 804.105  13
   7  -2 -15 48096.6 748.613   7
   7   2 -15 49016.0 798.920   9
   7   2 -15 47783.6 867.393  10
   7  -2 -15 48521.1 915.845  10
   7   2 -14 2262.12 198.579  13
   7  -2 -14 2336.02 212.304  13
   7  -2 -14 2263.67 194.798   7
   7   2 -14 2369.76 196.997   9
   7   2 -14 2137.90 213.440  10
   7  -2 -14 2191.30 227.468  10
   7  -2 -14 2082.62 198.737   9
   7  -2 -13 9008.12 433.716  13
   7   2 -13 9216.00 414.447  13
   7  -2 -13 8638.11 417.540   9
   7   2 -13 8675.95 442.663  10
   7  -2 -13 8686.02 455.238  10
   7   2 -13 8808.11 392.039   9
   7  -2 -12 19622.2 662.778  13
   7   2 -12 20393.0 627.803  13
   7  -2 -12 20423.3 652.484   9
   7   2 -12 20068.5 609.340   9
   7  -2 -11 107964. 1579.55  13
   7   2 -11 105392. 1438.30  13
   7   2 -11 106630. 1398.18   9
   7  -2 -11 105365. 1505.23   9
   7  -2 -10 5452.30 347.868   9
   7   2 -10 5147.53 311.434   9
  -7   2  10 5275.22 609.694   2
   7  -2 -10 4990.35 347.069  13
   7   2 -10 5341.48 326.625  13
  -7  -2  10 5122.72 657.386  17
   7   2 -10 5679.80 695.354  18
   7  -2 -10 4681.97 669.895  16
   7   2  -9 118072. 1492.93  13
   7  -2  -9 122426. 1683.87  13
   7  -2  -9 114917. 1579.83   9
   7   2  -9 121412. 1452.43   9
   7   2  -9 120763. 3078.12  18
  -7  -2   9 121213. 3078.22  17
   7  -2  -8 5832.47 367.362  13
   7   2  -8 5795.37 327.378  13
   7   2  -8 5662.69 652.725  18
  -7  -2   8 6830.07 715.180  17
  -7   2   8 6451.10 619.968   2
   7  -2  -8 5585.58 351.848   9
   7   2  -8 5853.18 314.791   9
  -7   2   7 31245.2 1336.84   2
   7   2  -7 31373.8 1452.30  18
  -7  -2   7 29250.4 1417.10  17
  -7   2   6 2417.80 368.301   2
  -7  -2   6 2425.84 399.710  17
   7  -2  -6 2112.26 349.506   3
   7   2  -6 2243.12 398.050  18
   7  -2  -5 195247. 3353.37   3
   7   2  -5 200149. 3584.73  18
  -7  -2   5 190657. 3530.34  17
   7  -2  -5 202694. 3762.58  18
  -7   2   5 202036. 3421.23   2
   7  -2  -4-21.8126 173.606   3
  -7   2   4 193.402 138.882   2
  -7   2   4-32.9206 150.012   1
   7   2  -4 88.8200 143.441  18
   7  -2  -4-11.9418 127.131  18
  -7   2   3 60849.9 2164.23   2
   7  -2  -3 59923.3 1986.52   3
  -7   2   3 57090.8 2147.71   1
   7   2  -3 62620.4 2217.72  18
   7  -2  -3 56662.3 1860.04  18
  -7  -2   3 59715.4 1982.32  19
  -7   2   2 29081.5 1799.56   2
  -7   2   2 31069.9 1029.12   4
   7  -2  -2 29591.1 1461.66   3
  -7   2   2 31879.3 1725.95   1
   7   2  -2 32692.3 1816.39  18
   7  -2  -2 28881.8 1286.38  18
  -7  -2   2 30618.6 1437.48  19
  -7   2   1 53901.2 1456.16   4
   7  -2  -1 59226.4 2206.44   3
  -7   2   1 59817.8 2196.52   1
   7   2  -1 57930.3 2129.95  18
   7  -2  -1 61389.7 1853.73  18
  -7  -2   1 57820.7 1969.59  19
  -7   2   0 1586.09 276.961   4
  -7  -2   0 1196.78 221.481   4
   7  -2   0 1077.92 364.044   3
  -7   2   0 1260.81 322.205   1
  -7  -2   0 1310.90 303.749   1
   7   2   0 1114.17 290.545  18
  -7  -2   0 868.252 262.513  19
  -7   2  -1 249722. 3696.57   4
   7  -2   1 256606. 5669.72   3
  -7  -2  -1 238165. 3309.35   4
  -7  -2  -1 248551. 3912.76   1
  -7   2  -1 254217. 4174.26   1
   7   2   1 246857. 3615.44  18
  -7  -2  -1 257447. 4159.93  19
  -7   2  -2 4335.13 537.732   4
   7  -2   2 4404.90 702.073   3
  -7  -2  -2 4369.41 501.291   4
  -7  -2  -2 4415.04 548.186   1
  -7   2  -2 4092.08 537.466   1
   7   2   2 4542.01 458.905  18
  -7  -2  -2 4126.59 527.150  19
   7   2   3 40387.5 1295.82  18
  -7   2  -3 41062.8 1847.62   4
   7  -2   3 39723.4 1869.47   3
  -7  -2  -3 41355.6 1715.20   4
  -7  -2  -3 39081.7 1688.38   1
  -7   2  -3 40510.3 1674.77   1
  -7   2  -4 11924.2 1138.37   4
   7  -2   4 10224.9 869.007   3
  -7  -2  -4 10564.7 997.698   4
  -7  -2  -4 10815.7 952.298   1
  -7   2  -4 11253.7 914.333   1
  -7   2  -5 107582. 3934.27   4
   7  -2   5 106611. 2606.85   3
  -7  -2  -5 115667. 3779.38   4
   7   2   5 112067. 3415.82   3
  -7  -2  -5 110223. 3257.61   1
  -7   2  -5 104007. 2889.98   1
  -7  -2  -6 1462.66 518.814   4
  -7   2  -6 1600.43 600.423   4
   7  -2   6 1739.40 341.022   3
  -7   2  -6 2137.17 463.543   1
  -7   2  -7 88160.1 1406.71  14
  -7  -2  -7 91270.2 1410.62  14
  -7   2  -7 89643.2 1316.18  10
  -7  -2  -7 87420.9 1306.49  10
  -7   2  -7 86956.6 3073.35   1
  -7   2  -7 88426.1 1381.20  11
  -7   2  -7 88454.2 1633.19  12
  -7  -2  -7 90835.1 1406.12  11
  -7   2  -7 90346.5 1411.35   8
  -7  -2  -7 90017.5 1412.78   8
  -7  -2  -7 83999.1 3837.00   4
  -7   2  -7 83767.4 3866.16   4
  -7  -2  -7 85991.8 1547.07  15
   7  -2   7 87213.6 2615.22  17
  -7   2  -7 89371.2 1489.43  15
  -7  -2  -8 8577.99 500.726  15
  -7   2  -8 8877.70 480.010  15
   7  -2   8 8577.99 837.050  17
  -7  -2  -8 8632.09 402.428   7
  -7  -2  -8 8393.65 425.971   6
  -7   2  -8 8633.03 446.546  11
  -7  -2  -8 8646.37 449.569  11
  -7  -2  -8 8202.02 589.474  12
  -7   2  -8 8546.93 523.726  12
  -7  -2  -8 9088.32 455.520  14
  -7   2  -8 8728.68 454.234  14
  -7  -2  -8 8821.93 457.936   8
  -7  -2  -8 8538.30 1234.27   4
  -7   2  -8 8618.27 1215.55   4
  -7   2  -8 8368.17 423.104  10
  -7  -2  -8 8656.57 431.711  10
  -7  -2  -9 27670.8 795.498  14
  -7   2  -9 28699.3 831.991  14
  -7  -2  -9 29837.2 762.354   7
  -7  -2  -9 28549.2 821.898   6
  -7  -2  -9 29588.8 831.586  11
  -7   2  -9 27300.8 921.435  12
  -7   2  -9 28313.0 811.335  11
  -7  -2  -9 29352.1 1108.87  12
  -7  -2  -9 26047.5 2152.60   4
  -7   2  -9 29056.8 2195.73   4
  -7  -2  -9 27629.8 895.417  15
   7  -2   9 26476.6 1488.45  17
  -7   2  -9 28254.4 848.931  15
  -7   2  -9 30082.3 823.642  10
  -7  -2  -9 28082.5 798.783  10
  -7  -2 -10 338.561 100.270   7
  -7   2 -10 330.400 144.579  12
  -7  -2 -10 311.072 121.100  11
  -7   2 -10 208.947 117.163  11
  -7  -2 -10 254.703 181.534  12
  -7  -2 -10 311.239 104.730   6
  -7   2 -10 216.857 97.5053  10
  -7  -2 -10 296.703 111.744  10
  -7   2 -10 364.329 125.057  15
  -7   2 -10 255.580 116.799  14
  -7  -2 -10 209.422 90.6859  14
  -7  -2 -10 38.6412 173.054  15
  -7  -2 -11 35336.4 1246.03  12
  -7   2 -11 35717.8 920.667  11
  -7  -2 -11 34303.3 905.827  11
  -7   2 -11 35373.5 1049.10  12
  -7  -2 -11 36166.9 894.536  14
  -7   2 -11 35637.1 937.110  10
  -7  -2 -11 35209.8 940.091  10
  -7  -2 -11 35175.4 869.552   7
  -7   2 -11 36787.1 946.869  15
  -7  -2 -11 33072.1 991.933  15
  -7   2 -12 297.056 131.043  10
  -7  -2 -12 161.935 109.158  10
  -7  -2 -12 108.519 126.398  15
  -7  -2 -12 227.333 104.129  14
  -7   2 -12 59.8498 115.349  15
  -7  -2 -12 402.056 119.007   7
  -7  -2 -12-38.9803 284.185  12
  -7   2 -12 160.363 145.460  12
  -7   2 -12 134.137 95.7107  11
  -7  -2 -12 208.653 106.427  11
  -7   2 -13 103877. 1589.82  10
  -7  -2 -13 102074. 1572.89  10
  -7  -2 -13 98322.2 1597.71  15
  -7   2 -13 101926. 1484.84  15
  -7  -2 -13 101495. 1422.00   7
  -7   2 -13 107757. 1768.74  12
  -7  -2 -13 103369. 2027.51  12
  -7  -2 -14 1387.35 305.332  12
  -7   2 -14 1110.63 195.884  12
  -7   2 -14 1196.65 163.703  15
  -7  -2 -14 1317.73 199.380  10
  -7   2 -14 1363.12 192.775  10
  -7  -2 -14 1172.70 162.103   7
  -7  -2 -15 13327.8 535.791  10
  -7   2 -15 13933.6 554.938  10
  -7   2 -15 13756.8 467.654  15
  -7  -2 -15 13654.2 463.004   7
  -7   2 -15 13021.0 559.158  12
  -7  -2 -16 2385.22 223.675  10
  -7   2 -16 2747.18 248.613  12
   7   3 -17-46.0653 49.6369   9
   7  -3 -17 3.82306 39.7390  10
   7   3 -17 43.8309 40.2801   7
  -7  -3  17 26.6904 35.9236   8
   7   3 -16 39017.5 594.352  13
   7   3 -16 40747.7 623.364   9
   7   3 -16 39137.7 598.988  10
   7  -3 -16 40709.3 698.060  10
   7   3 -15 1833.71 159.527  13
   7   3 -15 1980.58 165.218   9
   7   3 -15 2097.59 176.077  10
   7  -3 -15 1944.71 187.025  10
   7   3 -14 10715.1 407.196  13
   7   3 -14 10707.8 436.575  10
   7   3 -14 10944.5 400.114   9
   7  -3 -14 10772.5 467.554  10
   7   3 -13 1620.38 181.774  13
   7  -3 -13 1662.93 211.271  10
   7   3 -13 1318.10 176.859  10
   7   3 -13 1584.80 175.748   9
   7  -3 -13 1415.62 184.649   9
   7   3 -12 61410.2 1071.64  13
   7  -3 -12 61781.7 1194.27  13
   7   3 -12 60656.6 1024.97   9
   7  -3 -12 61750.7 1155.17   9
   7   3 -12 59491.0 1155.20  10
   7  -3 -12 60519.9 1217.69  10
   7  -3 -11-7.96267 104.063   9
   7   3 -11 15.7503 88.6908   9
   7  -3 -11 170.497 99.0735  13
   7   3 -11-51.8648 94.9134  13
   7  -3 -10 108608. 1577.47   9
   7   3 -10 106338. 1380.36   9
   7   3 -10 105644. 2975.21  18
  -7  -3  10 110009. 2979.16  17
  -7   3  10 114088. 2854.77   2
   7  -3 -10 110451. 1677.47  13
   7   3 -10 107471. 1442.79  13
   7  -3  -9 678.252 146.618  13
   7   3  -9 784.834 139.584  13
   7  -3  -9 476.615 276.815  16
  -7  -3   9 589.756 231.087  17
   7   3  -9 922.210 288.542  18
   7  -3  -9 888.226 157.760   9
   7   3  -9 866.248 134.976   9
  -7   3   9 1104.94 284.197   2
   7   3  -8 2531.38 227.783  13
   7   3  -8 3417.42 513.146  18
  -7  -3   8 1879.78 379.777  17
  -7   3   8 2703.22 427.015   2
   7  -3  -8 2634.63 260.991   9
   7   3  -8 2731.79 221.739   9
   7  -3  -8 2738.71 278.086  13
   7   3  -7 5989.68 661.736  18
  -7  -3   7 5652.57 626.112  17
  -7   3   7 5679.00 613.298   2
   7  -3  -7 5500.89 374.077   9
   7   3  -7 5580.35 321.795  13
   7  -3  -7 6143.46 409.075  13
   7  -3  -6 151543. 3117.97   3
   7   3  -6 135572. 3142.36  18
  -7  -3   6 139993. 2994.82  17
  -7   3   6 154909. 2799.32   1
  -7   3   6 143068. 3063.24   2
   7  -3  -5 215.852 153.381   3
   7   3  -5-134.591 171.708  18
  -7  -3   5 215.538 168.398  19
  -7  -3   5 82.3762 150.192  17
  -7   3   5 17.3781 165.871   2
  -7   3   5 317.692 168.415   1
  -7   3   4 255389. 4456.03   1
   7   3  -4 253115. 4775.99  18
  -7   3   4 248252. 4363.35   2
   7  -3  -4 264358. 4414.18   3
   7   3  -3 1134.76 396.004  18
  -7  -3   3 612.904 254.662  19
  -7   3   3 767.071 296.576   2
  -7   3   3 501.311 231.398   1
   7  -3  -3 831.208 297.725   3
  -7   3   2 86088.2 2598.47   1
   7   3  -2 85190.2 2747.34  18
  -7  -3   2 86346.9 2801.11  19
  -7   3   2 83772.7 3345.42   2
   7  -3  -2 85596.9 2841.15   3
  -7   3   1 8550.51 779.683   1
  -7   3   1 9753.58 665.015   4
   7  -3  -1 9256.63 1042.63   3
   7   3  -1 9015.70 810.088  18
  -7  -3   1 8566.39 909.802  19
  -7   3   0 388549. 4957.78   1
  -7  -3   0 366560. 3811.53   4
   7   3   0 384504. 4696.24  18
  -7  -3   0 382656. 6009.36  19
   7  -3   0 380564. 7287.63   3
   7   3   1 409.394 168.118  18
  -7  -3  -1 92.3307 184.552  19
  -7   3  -1 348.011 201.154   1
  -7  -3  -1 506.683 188.163   4
  -7   3  -1 287.062 200.577   4
   7  -3   1 362.583 238.162   3
  -7   3  -2 139458. 2936.46   1
   7   3   2 134748. 2498.31  18
  -7  -3  -2 139060. 3435.04  19
   7  -3   2 141040. 3725.00   3
  -7  -3  -2 136298. 2844.05   4
  -7  -3  -3 1324.93 331.438   4
  -7   3  -3 1431.87 390.230   4
   7  -3   3 1133.36 326.473   3
   7   3   3 1370.50 257.411  18
  -7  -3  -3 1100.63 316.607  19
  -7   3  -3 1354.87 314.466   1
  -7   3  -4 700.878 295.536   4
   7  -3   4 38.5179 114.527   3
   7   3   4 407.327 155.757  18
  -7   3  -4 512.721 210.471   1
  -7   3  -5 737.414 254.732   1
  -7  -3  -5 802.892 362.137   4
  -7   3  -5 754.232 364.878   4
   7  -3   5 705.033 231.418   3
  -7   3  -6 121609. 3183.42   1
  -7   3  -6 119065. 4824.05   4
   7  -3   6 127395. 2802.04   3
  -7  -3  -6 132677. 4772.20   4
  -7  -3  -7 442.053 109.647   8
   7  -3   7-120.762 150.202  17
  -7  -3  -7 104.659 76.4211  14
  -7  -3  -7 169.554 106.800  15
  -7   3  -7 166.468 102.286  15
  -7   3  -7 85.3218 75.2288  14
  -7  -3  -7 220.398 89.0280   7
  -7   3  -7 510.793 160.419  12
  -7  -3  -7 63.2355 170.197  12
  -7   3  -7 104.570 209.870   1
  -7  -3  -7 76.3620 79.7116   6
  -7  -3  -7-310.304 267.959   4
  -7   3  -7 134.398 270.644   4
  -7  -3  -7 140.467 69.1616  10
  -7   3  -7 123.904 61.4070  10
  -7  -3  -7 45.5649 72.0610  11
  -7   3  -7 311.170 114.334  11
  -7  -3  -8 173919. 1995.05   8
  -7   3  -8 172590. 2079.66  15
   7  -3   8 173875. 3894.24  17
  -7  -3  -8 176869. 2344.67  15
  -7  -3  -8 174713. 1830.00   7
  -7  -3  -8 171255. 1916.13   6
  -7  -3  -8 172178. 1968.09  11
  -7   3  -8 170203. 2278.79  12
  -7   3  -8 172810. 1970.61  11
  -7  -3  -8 172600. 1959.45  14
  -7   3  -8 178794. 2058.69  14
  -7   3  -8 172784. 4523.13   1
  -7  -3  -8 170014. 5678.54   4
  -7   3  -8 167062. 5481.17   4
  -7   3  -8 170397. 1885.69  10
  -7  -3  -8 168215. 1888.27  10
  -7  -3  -9 8393.30 436.843  14
  -7   3  -9 8089.39 458.394  14
  -7  -3  -9 6832.56 579.720  12
  -7   3  -9 8593.53 524.418  12
  -7   3  -9 8286.04 441.739  11
  -7  -3  -9 8102.73 440.109  11
  -7  -3  -9 8641.58 425.947   7
  -7  -3  -9 8744.10 455.556   6
  -7  -3  -9 8660.01 1286.89   4
  -7   3  -9 8295.63 1206.78   4
  -7   3  -9 8468.08 437.275  10
  -7  -3  -9 8592.09 448.486  10
  -7   3  -9 8373.56 465.387  15
   7  -3   9 8658.84 881.072  17
  -7  -3  -9 8488.75 522.264  15
  -7  -3 -10 2301.08 236.396   7
  -7  -3 -10 2333.85 250.397   6
  -7   3 -10 2733.02 255.840  11
  -7  -3 -10 2577.61 251.268  11
  -7  -3 -10 1559.91 266.852  12
  -7   3 -10 3512.90 332.988  12
  -7   3 -10 2777.50 275.437  15
  -7  -3 -10 2347.58 236.710  14
  -7  -3 -10 1998.52 259.889  15
  -7   3 -10 2273.07 236.672  10
  -7  -3 -10 2142.68 232.638  10
  -7  -3 -11 172.330 102.715  11
  -7   3 -11 367.453 125.696  11
  -7  -3 -11-218.539 332.370  12
  -7   3 -11 162.789 163.457  12
  -7   3 -11 319.528 125.582  10
  -7  -3 -11 270.398 122.406  10
  -7  -3 -11-0.23144 103.230   6
  -7  -3 -11 74.3546 85.7398  14
  -7   3 -11 154.254 110.127  15
  -7  -3 -11 169.014 135.596  15
  -7  -3 -11 222.727 117.227   7
  -7   3 -12 126139. 1679.46  11
  -7  -3 -12 126479. 1680.55  11
  -7   3 -12 131967. 1930.11  12
  -7  -3 -12 126066. 2401.78  12
  -7  -3 -12 124455. 1563.40  14
  -7  -3 -12 123987. 1733.15  10
  -7   3 -12 125088. 1724.41  10
  -7   3 -12 122884. 1643.05  15
  -7  -3 -12 128733. 1945.54  15
  -7  -3 -12 125032. 1642.08   7
  -7  -3 -13 5574.26 371.949  10
  -7   3 -13 5410.18 362.214  10
  -7  -3 -13 5157.75 335.707   7
  -7   3 -13 5358.83 331.659  15
  -7  -3 -13 5725.42 537.738  12
  -7   3 -13 5287.62 396.937  12
  -7  -3 -14 23443.1 719.351  10
  -7   3 -14 23639.3 729.482  10
  -7  -3 -14 23702.3 664.990   7
  -7   3 -14 22854.4 618.596  15
  -7   3 -14 23181.8 764.633  12
  -7   3 -15 1312.11 187.767  12
  -7  -3 -15 1453.65 162.736   7
  -7  -3 -15 1766.29 205.271  10
  -7  -3 -16 455.524 87.0995   7
  -7   3 -16 469.613 120.445  12
   7   4 -16 137.628 46.9380  13
   7  -4 -16 128.827 54.0361  10
   7   4 -16 206.401 64.4708   9
   7   4 -15 40501.8 680.459  13
   7   4 -15 39675.6 654.080  10
   7   4 -15 41003.4 675.251   9
   7  -4 -15 40104.5 762.864  10
   7   4 -14 532.185 99.2432  13
   7   4 -14 553.540 106.188  10
   7  -4 -14 552.134 117.194  10
   7   4 -14 574.132 104.995   9
   7   4 -13 699.363 120.388  13
   7   4 -13 510.451 103.889  10
   7  -4 -13 800.280 147.948  10
   7   4 -13 674.183 121.296   9
   7   4 -12 398.915 115.976  13
   7   4 -12 330.164 105.678  10
   7  -4 -12 367.010 134.778  10
   7   4 -12 543.577 124.694   9
   7   4 -11 156794. 1731.56  13
   7   4 -11 153687. 1638.09   9
   7  -4 -11 158022. 1931.86   9
   7  -4 -10 2486.79 269.210  13
   7   4 -10 2538.82 219.376   9
   7  -4 -10 2483.81 268.328   9
   7   4 -10 2530.55 231.605  13
   7   4  -9 20434.9 637.656  13
   7   4  -9 22332.9 1336.53  18
  -7  -4   9 21677.3 1298.11  17
   7  -4  -9 20717.6 1424.78  16
  -7   4   9 18692.4 1193.42   2
   7   4  -9 21176.9 609.429   9
   7  -4  -9 21814.5 752.476   9
   7  -4  -9 21492.5 795.004  13
   7   4  -8 8574.99 823.443  18
  -7  -4   8 7437.71 747.122  17
   7  -4  -8 7949.56 495.757  13
  -7   4   8 7087.68 731.070   2
   7   4  -8 6824.00 371.645  13
   7   4  -8 7072.81 345.276   9
   7  -4  -8 7607.96 455.662   9
   7   4  -7 42594.7 1843.93  18
  -7  -4   7 40513.4 1672.19  17
   7  -4  -7 43544.3 1191.40  13
  -7   4   7 43830.3 1808.41   2
   7   4  -7 43815.6 930.837  13
   7  -4  -7 42638.0 1124.22   9
  -7   4   6 1709.77 359.341   2
   7  -4  -6 1454.56 332.680   3
  -7  -4   6 1213.99 289.733  17
   7   4  -6 1456.20 385.472  18
  -7  -4   6 1824.38 399.215  19
   7  -4  -5 107128. 2975.13   3
   7   4  -5 103998. 3151.61  18
  -7  -4   5 97585.3 2483.29  17
  -7   4   5 106512. 2692.37   1
  -7   4   5 100310. 2861.75   2
  -7  -4   5 107443. 3207.75  19
  -7   4   4 2030.71 443.695   2
  -7   4   4 2118.30 487.575   1
   7  -4  -4 2115.24 467.424   3
  -7  -4   4 1672.82 345.175  17
   7   4  -4 1154.49 380.805  18
  -7  -4   4 1737.01 458.155  19
   7  -4  -3 67552.0 2667.27   3
  -7   4   3 65798.9 2748.15   2
  -7  -4   3 71636.2 2932.31  19
  -7   4   3 73098.2 2472.48   1
   7   4  -3 67622.6 2668.27  18
  -7   4   2 3895.03 805.098   2
  -7   4   2 3530.51 508.649   1
   7  -4  -2 3559.29 682.757   3
   7   4  -2 2931.75 502.192  18
  -7  -4   2 3848.75 686.018  19
   7  -4  -1 52344.8 2877.08   3
  -7  -4   1 51170.5 2403.54  19
  -7   4   1 54389.3 1864.78   1
   7   4  -1 52942.4 1884.28  18
   7  -4   0 17068.1 1537.22   3
  -7  -4   0 15745.9 1320.72  19
  -7   4   0 15714.9 987.862   1
   7   4   0 17136.7 996.851  18
  -7   4  -1 478875. 5668.26   4
   7  -4   1 467844. 7348.62   3
  -7  -4  -1 429310. 6799.50  19
  -7   4  -1 444186. 5171.90   1
   7   4   1 444271. 4812.27  18
  -7   4  -2 16840.6 1163.17   4
   7  -4   2 17389.0 1309.60   3
   7   4   2 17595.8 937.067  18
  -7  -4  -2 16277.0 1370.76  19
  -7   4  -2 15990.5 1003.97   1
  -7   4  -3 42811.9 2033.21   4
   7  -4   3 37547.7 1797.47   3
  -7  -4  -3 38426.1 1761.62   4
  -7  -4  -3 41000.1 2247.66  19
  -7   4  -3 41013.1 1628.55   1
   7   4   3 38315.7 1378.17  18
  -7   4  -4 16170.0 1062.73   1
  -7   4  -4 18997.0 1534.34   4
   7  -4   4 16512.0 1134.98   3
  -7  -4  -4 17085.0 1316.46   4
   7   4   4 15971.2 899.679  18
  -7   4  -5 52886.9 2002.83   1
   7   4   5 55971.0 1694.50  18
  -7   4  -5 60227.0 3153.85   4
   7  -4   5 52581.4 1933.10   3
  -7  -4  -5 57454.2 2721.57   4
   7  -4   6 8416.03 760.866   3
  -7   4  -6 8034.62 1326.40   4
  -7  -4  -6 8854.23 1238.19   4
  -7   4  -6 7981.51 468.387  15
  -7  -4  -6 8323.94 435.260  14
  -7  -4  -6 8493.21 391.546   7
  -7  -4  -6 8024.93 399.288   6
  -7   4  -6 7530.28 504.069  12
  -7  -4  -6 7782.29 405.621  11
  -7   4  -6 7161.39 784.216   1
  -7  -4  -6 8858.05 443.578   8
  -7  -4  -7 155503. 1873.54   8
  -7   4  -7 157456. 2017.81  15
  -7  -4  -7 155641. 2344.51  15
   7  -4   7 154996. 3780.36  17
  -7   4  -7 160116. 1975.11  14
  -7  -4  -7 156077. 1868.29  14
  -7  -4  -7 157230. 1731.77   7
  -7  -4  -7 155334. 1786.52   6
  -7   4  -7 156730. 2236.86  12
  -7  -4  -7 157603. 2571.86  12
  -7   4  -7 154035. 1829.58  11
  -7  -4  -7 152962. 1821.06  11
  -7   4  -7 154717. 3799.84   1
  -7  -4  -7 156510. 5709.30   4
  -7  -4  -7 158743. 1763.32  10
  -7   4  -7 160034. 1764.26  10
  -7   4  -7 149557. 5484.84   4
  -7  -4  -8 912.233 167.746  14
  -7   4  -8 929.619 187.027  15
  -7  -4  -8 911.310 211.079  15
  -7   4  -8 1177.08 192.713  14
  -7  -4  -8 1054.62 174.396   6
  -7  -4  -8 919.479 152.363   7
  -7  -4  -8 76.7505 355.282  12
  -7   4  -8 970.447 160.879  11
  -7   4  -8 1161.69 218.492  12
  -7  -4  -8 894.489 145.038  11
  -7  -4  -8 855.923 143.392  10
  -7   4  -8 904.252 145.402  10
  -7   4  -8 1190.47 362.550   1
  -7   4  -8-223.120 248.385   4
   7  -4   8 881.991 332.134  17
  -7  -4  -9 50890.0 1091.11   6
  -7  -4  -9 51398.3 1051.07   7
  -7   4  -9 50636.4 1246.98  12
  -7  -4  -9 48777.0 1047.41  11
  -7   4  -9 51976.5 1079.93  11
  -7  -4  -9 47568.2 1627.18  12
  -7   4  -9 52252.0 1134.91  15
  -7  -4  -9 51344.1 1349.62  15
   7  -4   9 48647.0 2178.85  17
  -7   4  -9 51543.8 1053.91  10
  -7  -4  -9 51209.0 1066.78  10
  -7   4  -9 51624.8 3019.53   4
  -7  -4  -9 50361.6 1053.22  14
  -7   4 -10 3035.69 275.551  11
  -7  -4 -10 2930.65 266.859  11
  -7   4 -10 3174.83 332.577  12
  -7  -4 -10 2305.35 409.200  12
  -7  -4 -10 2712.22 250.515  14
  -7   4 -10 2712.51 257.993  10
  -7  -4 -10 2937.21 270.315  10
  -7  -4 -10 2811.19 333.598  15
  -7   4 -10 2925.68 280.614  15
  -7  -4 -10 2752.60 259.978   7
  -7  -4 -10 2844.67 282.259   6
  -7   4 -11 60984.1 1168.68  11
  -7   4 -11 63454.9 1337.72  12
  -7  -4 -11 60012.9 1773.91  12
  -7  -4 -11 60689.0 1166.44  11
  -7  -4 -11 59037.0 1079.40  14
  -7   4 -11 58714.9 1164.68  10
  -7  -4 -11 60152.8 1189.89  10
  -7   4 -11 63756.1 1186.48  15
  -7  -4 -11 64253.3 1457.41  15
  -7  -4 -11 61104.2 1179.18   7
  -7  -4 -11 61398.5 1284.26   6
  -7   4 -12 5763.58 405.541  12
  -7  -4 -12 6351.17 342.879  14
  -7   4 -12 5523.92 344.865  15
  -7  -4 -12 5749.47 366.756   7
  -7  -4 -12 6284.19 438.234   6
  -7  -4 -12 5962.29 378.248  10
  -7   4 -12 6002.83 377.884  10
  -7   4 -13 92665.6 1506.04  12
  -7  -4 -13 95203.8 1999.90  12
  -7  -4 -13 91215.3 1417.72  10
  -7   4 -13 89395.0 1402.86  10
  -7   4 -13 91219.1 1274.76  15
  -7  -4 -13 90259.0 1365.17   7
  -7   4 -14-55.1810 127.753  12
  -7   4 -14-95.4263 100.894  15
  -7  -4 -14 91.0990 89.0182  10
  -7  -4 -14-56.6926 105.643   7
  -7  -4 -15 3229.19 254.118  10
  -7  -4 -15 3127.37 230.949   7
  -7   4 -15 2925.71 240.044  12
  -7   4 -16 2592.79 197.210  12
  -7  -5  16 30185.2 480.070   8
   7   5 -16 28567.2 437.808  13
   7   5 -16 30556.9 466.252   9
   7  -5 -16 29127.8 466.938  10
   7   5 -15 4634.52 221.773  13
   7  -5 -15 4525.65 239.252  10
   7   5 -15 4542.82 216.269   9
   7   5 -14 7016.78 305.949  13
   7  -5 -14 6626.22 330.995  10
   7   5 -14 6679.31 288.675   9
   7   5 -13 11383.3 421.148  13
   7   5 -13 11275.9 402.469   9
   7  -5 -13 11064.9 470.770  10
   7   5 -12 41616.7 844.289  13
   7   5 -12 40428.6 797.233   9
   7  -5 -12 40766.7 952.296  10
   7  -5 -11 989.091 175.399  10
   7   5 -11 924.477 147.308   9
   7   5 -11 1024.30 160.235  13
   7   5 -10 97040.5 1285.37   9
   7   5 -10 94486.4 1365.69  13
   7   5  -9 262.441 209.503  18
  -7   5   9 126.230 140.262   2
   7   5  -9 343.150 108.569  13
   7  -5  -9 732.248 320.757  16
  -7  -5   9 573.671 239.237  17
   7   5  -9 448.065 99.3321   9
   7   5  -8 4690.97 626.805  18
  -7  -5   8 3992.94 555.124  17
  -7   5   8 4343.37 609.565   2
   7   5  -8 5082.13 290.625   9
   7   5  -8 4129.79 299.611  13
   7   5  -7 2.16432 109.301  18
  -7  -5   7 137.232 109.000  17
   7   5  -7 229.933 92.2963  13
  -7   5   7-85.9011 135.920   2
   7   5  -6 118960. 3386.11  18
  -7  -5   6 127478. 2896.35  17
   7  -5  -6 130340. 3388.98   3
  -7   5   6 134464. 3464.33   2
   7   5  -6 121495. 1642.10  13
  -7  -5   6 129120. 3666.06  19
  -7  -5   5-458.949 203.763  17
   7  -5  -5 11.7635 137.903   3
   7   5  -5 29.2464 220.433  18
  -7  -5   5-72.0248 170.988  19
  -7   5   5-60.4543 178.570   2
  -7  -5   4 229091. 5721.75  19
  -7   5   4 200025. 4720.40   2
   7  -5  -4 218511. 4980.16   3
   7   5  -4 202075. 5167.40  18
  -7   5   4 208919. 4501.81   1
  -7  -5   3 13004.7 1294.70  19
   7  -5  -3 12984.1 1330.04   3
  -7   5   3 13162.4 1353.95   2
   7   5  -3 12386.6 1136.59  18
  -7   5   3 11965.3 978.420   1
  -7  -5   2 4035.41 704.750  19
   7  -5  -2 3332.07 792.035   3
   7   5  -2 2915.98 496.496  18
  -7   5   2 3462.16 852.743   2
  -7   5   2 3217.83 484.172   1
  -7  -5   1 16706.5 1341.62  19
   7  -5  -1 18344.5 1710.49   3
   7   5  -1 17236.8 1095.08  18
  -7   5   1 15966.7 1021.72   1
  -7  -5   0 124340. 3566.89  19
   7  -5   0 138812. 4374.95   3
   7   5   0 126775. 2772.52  18
  -7   5   0 134670. 2885.88   1
  -7  -5  -1 9012.25 968.389  19
   7  -5   1 9816.11 1094.33   3
   7   5   1 9492.38 743.672  18
  -7   5  -1 9509.53 772.980   1
  -7  -5  -2 204219. 4636.40  19
   7  -5   2 237138. 4898.62   3
  -7   5  -2 228467. 4465.47   4
   7   5   2 218996. 3480.42  18
  -7   5  -2 209328. 3674.57   1
  -7  -5  -3 19776.8 1512.48  19
  -7   5  -3 21141.1 1204.85   1
   7   5   3 20755.0 1075.50  18
   7  -5   3 21090.1 1382.43   3
  -7   5  -3 20774.8 1489.72   4
  -7   5  -4 242.308 208.492   1
   7   5   4 102.345 116.266  18
  -7   5  -4 567.180 309.003   4
   7  -5   4 612.255 268.214   3
  -7   5  -5 2748.83 292.219  15
  -7  -5  -5 2527.12 248.851  14
  -7  -5  -5 2560.42 222.500   7
  -7  -5  -5 2560.35 225.013   6
   7   5   5 2336.74 384.355  18
   7  -5   5 2543.20 446.619   3
  -7   5  -5 3333.26 775.940   4
  -7   5  -5 2395.90 451.900   1
  -7  -5  -6 123563. 1640.87   8
  -7   5  -6 128988. 1842.57  14
  -7   5  -6 127212. 1882.54  15
  -7  -5  -6 125350. 1689.35  14
  -7  -5  -6 122614. 1532.16   7
  -7  -5  -6 125953. 1592.27   6
  -7   5  -6 126760. 2093.45  12
  -7  -5  -6 122996. 1589.49  11
  -7  -5  -6 121253. 2258.69  15
  -7  -5  -6 123237. 1501.96  10
  -7   5  -6 126402. 5479.81   4
   7  -5   6 132042. 3113.83   3
  -7   5  -6 125995. 3278.06   1
  -7  -5  -7 13374.4 544.385   8
  -7   5  -7 13155.2 596.576  15
  -7  -5  -7 13292.3 743.259  15
   7  -5   7 12781.3 1124.03  17
  -7  -5  -7 13629.9 527.643   7
  -7  -5  -7 13159.8 533.135   6
  -7   5  -7 13119.8 663.165  12
  -7   5  -7 13150.4 530.328  11
  -7  -5  -7 12976.9 523.089  11
  -7  -5  -7 13788.4 555.682  14
  -7  -5  -7 13050.4 505.067  10
  -7   5  -7 12512.1 1098.68   1
  -7   5  -7 13938.8 1744.86   4
  -7   5  -8 70454.9 1348.66  15
  -7  -5  -8 70724.0 1707.66  15
   7  -5   8 73150.2 2742.67  17
  -7  -5  -8 71621.1 1236.55   7
  -7  -5  -8 72224.8 1271.15   6
  -7   5  -8 73333.1 1260.63  11
  -7   5  -8 74726.3 1526.65  12
  -7  -5  -8 66452.0 1785.03  12
  -7  -5  -8 73734.0 1253.70  11
  -7  -5  -8 72288.0 1254.18  14
  -7  -5  -8 73501.2 1229.01  10
  -7   5  -8 69382.8 2757.85   1
  -7   5  -8 73940.1 3837.30   4
  -7  -5  -9 6439.42 397.259   6
  -7  -5  -9 6571.69 385.908   7
  -7  -5  -9 6084.32 368.099  11
  -7   5  -9 6320.47 375.249  11
  -7  -5  -9 6046.29 622.880  12
  -7   5  -9 6267.71 445.816  12
  -7   5  -9 6461.99 410.780  15
  -7  -5  -9 7044.82 548.180  15
  -7  -5  -9 6629.04 383.989  10
  -7   5  -9 6512.72 370.811  10
  -7  -5  -9 6618.28 373.393  14
  -7  -5 -10 486.200 126.152   7
  -7   5 -10 984.493 152.650  11
  -7   5 -10 589.493 175.541  12
  -7  -5 -10 365.868 110.617  11
  -7  -5 -10 266.986 106.705   6
  -7  -5 -10 460.747 115.408  10
  -7   5 -10 899.452 152.799  10
  -7  -5 -10 276.606 96.9762  14
  -7   5 -10 778.815 141.627  15
  -7   5 -11 11305.8 561.994  12
  -7   5 -11 10527.3 476.926  11
  -7  -5 -11 10894.1 479.751  11
  -7  -5 -11 10506.4 495.542   7
  -7  -5 -11 10958.4 542.924   6
  -7   5 -11 10814.5 482.633  15
  -7  -5 -11 10901.7 491.682  10
  -7   5 -11 10515.5 479.634  10
  -7  -5 -11 10424.3 437.120  14
  -7  -5 -12 83982.5 1936.59  12
  -7   5 -12 85365.6 1448.81  12
  -7   5 -12 87590.0 1268.41  15
  -7  -5 -12 83299.9 1328.63  10
  -7  -5 -12 86230.7 1360.23   7
  -7  -5 -12 84291.9 1516.15   6
  -7  -5 -13 1001.99 164.146   7
  -7   5 -13 743.921 173.370  12
  -7  -5 -13 912.498 191.442   6
  -7  -5 -13 812.449 143.307  10
  -7   5 -13 657.896 122.508  15
  -7   5 -14 31787.8 618.219  15
  -7  -5 -14 33800.6 788.579  10
  -7  -5 -14 34052.4 788.502   7
  -7   5 -14 34562.0 814.061  12
  -7  -5 -15 220.456 80.4912   7
  -7   5 -15 124.785 121.615  12
   7   6 -16 545.190 61.0232   9
   7   6 -15 27079.1 487.828  13
  -7  -6  15 27541.0 495.619   8
   7  -6 -15 26433.9 475.436  10
   7   6 -15 28158.4 481.880   9
   7   6 -14 762.756 102.682   9
   7  -6 -14 590.719 99.0508  10
   7   6 -14 529.168 91.8928  13
   7   6 -13 3492.74 215.435   9
   7  -6 -13 3339.59 240.263  10
   7   6 -13 3825.76 237.567  13
   7   6 -12 2523.02 204.464   9
   7  -6 -12 2631.71 241.105  10
   7   6 -12 2711.19 220.418  13
   7  -6 -11 121719. 1648.18  10
   7   6 -11 119750. 1364.69   9
   7   6 -11 119500. 1469.58  13
   7   6 -10 19618.3 571.498   9
   7   6 -10 19455.6 625.129  13
   7   6  -9 24991.6 648.460   9
   7   6  -9 24995.3 731.860  13
   7   6  -8 10322.7 486.356  13
  -7   6   8 12570.2 1095.17   2
  -7  -6   8 10154.8 974.028  19
   7   6  -8 10583.9 423.326   9
   7  -6  -8 9400.41 1021.81  16
   7   6  -8 10994.6 980.346  18
  -7  -6   8 10520.3 884.787  17
  -7   6   7 906.295 287.215   2
   7   6  -7 1653.02 390.453  18
  -7  -6   7 1506.79 448.492  19
  -7  -6   7 1861.71 368.525  17
   7   6  -7 955.019 164.125  13
   7   6  -6 1216.70 186.619  13
  -7  -6   6 1161.27 199.668  20
  -7   6   6 904.616 341.637   2
   7   6  -6 816.646 322.900  18
  -7  -6   6 1345.43 441.223  19
  -7  -6   6 1288.81 304.814  17
   7  -6  -6 1717.38 409.281   3
   7   6  -5 205826. 2338.46  13
   7   6  -5 212349. 5439.48  18
  -7  -6   5 202776. 2425.54   8
  -7   6   5 213371. 4985.69   2
   7  -6  -5 218118. 5013.05   3
  -7  -6   5 208968. 5657.49  19
  -7  -6   5 214217. 2462.77  20
  -7   6   4 676.905 258.807   1
  -7   6   4 484.423 303.858   2
   7  -6  -4-12.6747 115.651   3
   7   6  -4 713.708 344.860  18
  -7  -6   4 971.287 397.295  19
  -7  -6   4 929.068 191.369  20
  -7   6   3 18601.8 1208.64   1
   7  -6  -3 15215.1 1597.88   3
  -7   6   3 15801.2 1637.20   2
   7   6  -3 14859.7 1248.71  18
  -7  -6   3 14837.2 1354.03  19
  -7   6   2 31850.0 1486.86   1
   7  -6  -2 34220.2 2558.04   3
  -7   6   2 31740.6 2628.01   2
   7   6  -2 31380.7 1645.90  18
  -7  -6   2 31296.9 1875.43  19
  -7   6   1 57940.6 1955.07   1
   7  -6  -1 61841.9 3213.64   3
   7   6  -1 57875.2 2073.79  18
  -7  -6   1 62345.9 2558.79  19
  -7   6   0 8098.97 729.481   1
   7  -6   0 10312.2 1239.59   3
   7   6   0 8764.24 775.282  18
  -7  -6   0 8567.64 940.438  19
  -7   6  -1 204360. 3663.88   1
   7  -6   1 221012. 5258.68   3
   7   6   1 218843. 3730.59  18
  -7  -6  -1 198571. 4452.97  19
  -7   6  -2 46480.8 1780.71   1
   7  -6   2 49632.2 2332.49   3
   7   6   2 48259.4 1742.55  18
  -7  -6  -2 47397.5 2237.13  19
  -7  -6  -3 34017.7 1927.83  19
  -7   6  -3 31914.5 1514.44   1
  -7  -6  -3 33711.9 779.858   7
  -7  -6  -3 34199.1 777.290   6
   7   6   3 32930.7 1447.06  18
   7  -6   3 33215.5 1816.38   3
  -7   6  -3 37704.6 2090.51   4
  -7  -6  -4 3656.32 308.153  14
  -7   6  -4 4387.53 588.994   1
  -7  -6  -4 3753.28 268.101   7
  -7  -6  -4 3701.79 269.272   6
   7   6   4 3584.23 493.537  18
   7  -6   4 3190.36 543.954   3
  -7   6  -4 3945.86 784.459   4
  -7  -6  -5 25139.8 776.552  14
  -7   6  -5 25939.9 1464.21   1
  -7  -6  -5 25308.3 702.728   7
  -7  -6  -5 24647.1 700.095   6
  -7   6  -5 26208.0 2234.46   4
   7  -6   5 26261.9 1495.80   3
   7   6   5 24435.1 1284.95  18
  -7  -6  -6 6494.33 626.568  15
   7  -6   6 5222.15 740.541  17
  -7  -6  -6 5774.29 347.339   7
  -7  -6  -6 5810.71 351.454   6
  -7   6  -6 6045.74 420.453  15
  -7  -6  -6 5617.27 363.574  14
  -7   6  -6 5880.00 733.799   1
   7   6   6 5776.05 638.213  18
  -7   6  -6 4962.35 1108.29   4
   7  -6   6 5836.34 680.486   3
  -7  -6  -7 98073.0 1463.36  14
  -7  -6  -7 99407.0 1457.06   7
  -7  -6  -7 98652.6 1472.60   6
  -7   6  -7 102736. 1848.67  12
  -7   6  -7 97512.7 4770.92   4
  -7   6  -7 97948.2 3094.43   1
   7  -6   7 102637. 3282.78  17
  -7   6  -7 98672.9 1631.56  15
  -7  -6  -8 6247.71 375.958   7
  -7  -6  -8 6335.19 392.017   6
  -7   6  -8 6573.30 461.635  12
  -7  -6  -8 6190.66 365.007  14
  -7   6  -8 5841.32 397.380  15
  -7  -6  -8 5970.45 346.405  10
  -7   6  -8 6309.35 397.105   9
  -7   6  -9 13055.3 546.349   9
  -7   6  -9 12919.8 623.109  12
  -7  -6  -9 13339.9 511.812  14
  -7   6  -9 12574.1 550.559  15
  -7  -6  -9 13239.5 522.062  10
  -7  -6  -9 13337.2 554.915   7
  -7  -6  -9 12837.9 558.425   6
  -7   6 -10 15622.5 595.064   9
  -7  -6 -10 16453.9 544.501  14
  -7   6 -10 16624.4 678.377  12
  -7  -6 -10 16158.2 573.987  10
  -7  -6 -10 16074.0 631.741   6
  -7  -6 -10 15937.7 606.982   7
  -7   6 -10 16246.9 597.297  15
  -7   6 -11 30200.4 865.897  12
  -7   6 -11 29238.0 749.847  15
  -7  -6 -11 28436.0 751.244  10
  -7  -6 -11 28953.4 801.500   7
  -7  -6 -11 28786.0 850.185   6
  -7  -6 -12 225.545 113.510   7
  -7   6 -12 93.2831 115.271  12
  -7  -6 -12 165.616 112.878   6
  -7   6 -12 131.970 86.9960  15
  -7  -6 -12 200.649 95.6926  10
  -7   6 -13 78036.1 1228.21  12
  -7  -6 -13 75301.3 1148.33  10
  -7  -6 -13 77589.2 1224.94   7
  -7  -6 -13 76852.1 1437.13   6
  -7   6 -13 77025.5 998.832  15
  -7  -6 -14 325.439 104.389   7
  -7   6 -14 381.863 112.036  12
  -7  -6 -15 6120.30 306.461   7
  -7   6 -15 4722.19 246.898  12
  -7   7  15 3792.39 165.531   5
   7   7 -15 3949.56 158.659   9
   7   7 -15 3909.37 170.315  13
  -7  -7  14 1218.78 115.616   8
   7   7 -14 1392.48 127.468  13
   7   7 -14 1308.01 115.095   9
  -7   7  14 1257.82 121.347  13
   7   7 -13 12655.8 401.496  13
   7   7 -13 12884.2 376.721   9
   7   7 -12 42685.5 799.187  13
   7   7 -12 41189.9 724.142   9
   7   7 -11 2375.20 214.195  13
   7  -7 -11 2105.93 216.260  10
   7   7 -11 2124.31 182.616   9
   7   7 -10 90895.8 1326.39  13
   7   7 -10 92982.5 1196.70   9
   7   7  -9 13847.0 550.142  13
   7   7  -9 13174.4 458.815   9
   7   7  -8 1575.16 201.075  13
  -7  -7   7 15005.4 1348.63  19
   7   7  -7 13826.2 601.307  13
  -7   7   7 14828.2 1272.13   2
   7   7  -7 13682.8 1166.75  18
   7   7  -6 105925. 3534.31  18
   7   7  -6 101041. 1680.56  13
  -7  -7   6 114898. 4091.29  19
  -7  -7   6 101255. 1743.61  20
  -7  -7   6 101389. 1667.55   8
  -7   7   6 113963. 3670.77   2
   7   7  -5 1912.98 254.083  13
  -7   7   5 2019.67 526.973   2
   7   7  -5 1874.77 551.537  18
  -7  -7   5 776.042 439.483  19
  -7  -7   5 2190.43 279.870  20
   7  -7  -5 3039.93 619.464   3
   7   7  -4 182918. 2405.70  13
   7   7  -4 184861. 5037.13  18
  -7   7   4 178548. 2571.74   5
  -7  -7   4 172836. 4894.67  19
  -7  -7   4 190313. 2462.99  20
  -7   7   4 168469. 5135.78   2
   7  -7  -4 184943. 5356.90   3
  -7   7   3 2433.08 453.854   1
  -7   7   3 1191.74 444.604   2
   7   7  -3 2682.33 545.190  18
  -7  -7   3 2540.75 570.970  19
  -7   7   3 2271.36 335.731   5
  -7  -7   3 2773.02 314.740  20
   7  -7  -3 2421.07 718.393   3
   7   7  -2 28.0657 165.736  18
  -7  -7   2-74.4499 198.362  19
  -7  -7   2 69.7680 116.179  20
  -7   7   2 327.990 188.624   1
   7  -7  -2 236.412 348.612   3
  -7   7   1 20163.6 812.397  13
   7   7  -1 21118.8 1324.72  18
  -7  -7   1 20197.2 1491.71  19
  -7  -7   1 20726.6 770.979  20
  -7   7   1 20216.1 1186.42   1
   7  -7  -1 20796.5 1943.36   3
  -7   7   0 53875.4 1238.80  13
  -7   7   0 51931.7 1897.38   1
   7   7   0 53993.8 2022.23  18
  -7  -7   0 52000.6 2342.17  19
   7  -7   0 54877.3 2921.90   3
  -7  -7  -1 772.396 178.962  14
  -7   7  -1 794.876 164.891  13
  -7  -7  -1 655.703 120.468   6
  -7   7  -1 553.928 206.948   1
   7   7   1 449.038 233.533  18
  -7  -7  -1 685.029 278.735  19
   7  -7   1 596.752 320.578   3
  -7  -7  -2 145489. 2180.34  14
  -7  -7  -2 135517. 3789.35  19
  -7  -7  -2 144157. 1598.80   6
  -7  -7  -2 143529. 1705.61   7
  -7   7  -2 136989. 3163.95   1
   7   7   2 145578. 3223.50  18
   7  -7   2 155549. 4280.23   3
  -7  -7  -3 30332.9 930.510  14
  -7  -7  -3 30506.2 754.911   6
  -7  -7  -3 31161.2 790.484   7
  -7  -7  -3 29199.3 1806.23  19
  -7   7  -3 30803.7 1545.18   1
   7   7   3 29459.4 1463.23  18
  -7   7  -3 30440.7 1969.83   4
   7  -7   3 32412.3 1863.43   3
  -7  -7  -4 237.924 92.3311   6
  -7  -7  -4 337.755 109.588   7
  -7   7  -4 121.991 178.048   1
   7   7   4 238.449 145.605  18
   7  -7   4 10.0476 162.561   3
  -7   7  -4 392.223 351.208   4
  -7  -7  -5 625.480 135.672  14
  -7  -7  -5 758.408 143.286   7
  -7  -7  -5 552.065 128.912   6
   7   7   5 23.4421 149.430  18
  -7   7  -5 491.241 247.766   1
   7  -7   5 549.792 250.060   3
  -7   7  -5 786.333 473.566   4
   7   7   6 110669. 2919.33  18
   7  -7   6 117576. 3589.97  17
  -7   7  -6 111929. 1804.29  15
  -7  -7  -6 110875. 1572.83  14
  -7  -7  -6 110195. 1535.88   7
  -7  -7  -6 111814. 1549.40   6
   7  -7   6 109896. 1539.83  20
  -7   7  -6 113732. 5602.46   4
   7  -7   6 109004. 3093.35   3
  -7   7  -6 106628. 3161.11   1
  -7  -7  -7 128.279 101.267   6
  -7  -7  -7 122.483 95.6613   7
  -7  -7  -7 231.628 93.1737  14
  -7   7  -7 66.5556 105.551  15
  -7   7  -7 169.819 150.135  12
  -7   7  -8 58205.2 1340.39  12
  -7  -7  -8 57716.1 1139.12   7
  -7  -7  -8 55745.9 1143.97   6
  -7   7  -8 55314.0 1167.27  15
  -7  -7  -8 55643.3 1033.11  14
  -7   7  -8 55850.2 1167.49   9
  -7   7  -9 2489.06 244.805  15
  -7  -7  -9 2816.74 265.243   7
  -7  -7  -9 2637.26 261.402   6
  -7   7  -9 2147.67 236.244   9
  -7   7  -9 2654.68 290.972  12
  -7   7 -10 769.034 163.362  12
  -7  -7 -10 556.059 135.913   7
  -7  -7 -10 588.295 140.450   6
  -7   7 -10 544.915 124.266  15
  -7   7 -10 568.778 120.734   9
  -7   7 -11 10092.2 414.447  15
  -7   7 -11 10687.2 499.376  12
  -7  -7 -11 10347.0 475.687   7
  -7  -7 -11 10145.3 495.539   6
  -7   7 -11 9835.91 474.475   9
  -7   7 -12 43715.3 923.562  12
  -7  -7 -12 43568.6 931.505   7
  -7  -7 -12 43186.3 1013.87   6
  -7   7 -12 42656.3 759.060  15
  -7   7 -13 283.942 108.651  12
  -7  -7 -13 265.339 108.456   7
  -7  -7 -13 117.599 111.294   6
  -7   7 -14 51920.4 827.008  12
  -7  -7 -14 52163.4 928.820   7
   7  -8 -14 4707.05 214.701   6
  -7   8  14 4252.78 191.099   5
   7   8 -14 4534.71 196.878  13
   7   8 -14 4512.36 169.943   9
  -7   8  13 9736.78 354.525  13
   7   8 -13 9905.15 332.081  13
   7   8 -13 10181.6 297.298   9
   7   8 -12 346.968 85.5392  13
  -7   8  12 313.538 101.732  13
  -7  -8  12 310.261 77.6507   8
   7   8 -12 328.152 75.6573   9
   7   8 -11 45907.0 741.997   9
  -7  -8  11 45683.8 819.878   8
   7   8 -11 47008.4 864.366  13
   7   8 -10 6214.66 291.450   9
   7   8 -10 6301.85 347.294  13
  -7  -8  10 5947.42 321.664   8
   7   8  -9 59395.4 1114.50  13
   7   8  -8 19727.6 688.316  13
  -7  -8   7 22077.8 805.733  20
   7   8  -7 21859.4 762.678  13
  -7   8   6 74647.4 1508.55   5
  -7  -8   6 76103.0 1555.76  20
   7   8  -6 71887.0 1462.48  13
   7   8  -5 103377. 1834.73  13
  -7   8   5 110353. 4076.70   2
   7  -8  -5 114370. 3921.24   3
  -7   8   5 99452.3 1848.52   5
  -7  -8   5 98239.0 3994.35  19
  -7  -8   5 111817. 1943.03  20
   7   8  -5 108484. 4239.04  18
   7   8  -4 922.646 195.681  13
  -7   8   4-57.4308 258.203   2
  -7   8   4 989.133 229.138   5
   7  -8  -4 799.707 406.046   3
  -7  -8   4 1168.79 228.428  20
   7   8  -4 1306.91 457.159  18
  -7  -8   4 823.909 356.710  19
  -7   8   3 9714.25 713.194  13
   7  -8  -3 9006.44 1383.40   3
  -7   8   3 9665.34 675.362   5
  -7  -8   3 10069.8 1151.28  19
  -7  -8   3 8831.93 563.357  20
   7   8  -3 9934.25 1109.21  18
  -7   8   2 19162.1 895.602  13
  -7   8   2 17590.5 1156.55   1
   7  -8  -2 18397.1 2050.74   3
  -7   8   2 17984.6 1014.95   5
  -7  -8   2 15520.4 1377.45  19
  -7  -8   2 18446.2 800.822  20
   7   8  -2 18794.9 1395.58  18
  -7   8   1 39876.2 1186.23  13
  -7   8   1 38519.3 1687.90   1
   7  -8  -1 41155.9 2815.83   3
  -7   8   1 35950.6 1406.55   5
  -7  -8   1 37304.2 2073.32  19
  -7  -8   1 36052.2 1058.46  20
   7   8  -1 36173.9 1826.54  18
  -7  -8   0 5383.36 316.986   6
  -7   8   0 5231.31 409.842  13
  -7   8   0 5216.81 631.159   1
   7  -8   0 5421.37 962.419   3
  -7   8   0 5160.54 504.409   5
  -7  -8   0 5062.08 751.982  19
   7   8   0 5665.94 704.462  18
   7   8   1 102329. 2892.07  18
  -7  -8  -1 100691. 2000.67  14
  -7   8  -1 97732.7 1651.74  13
  -7   8  -1 93008.5 2660.59   1
  -7   8  -1 99626.0 2082.67   5
  -7  -8  -1 97579.1 3276.94  19
  -7  -8  -1 98944.2 1341.66   6
   7   8   2 1376.16 366.072  18
  -7  -8  -2 1072.60 362.013  19
  -7  -8  -2 1152.66 214.656  14
  -7   8  -2 1366.36 205.409  13
  -7   8  -2 1154.30 332.486   1
   7  -8   2 566.042 273.355   3
  -7   8  -2 563.051 161.878   5
  -7  -8  -2 1074.67 155.486   6
   7   8   3 82335.9 2568.99  18
  -7  -8  -3 84321.4 1543.41  14
  -7   8  -3 83575.0 1424.84  13
  -7   8  -3 79668.2 2561.63   1
  -7   8  -3 85817.9 3437.53   4
  -7   8  -3 83372.2 1842.97   5
  -7  -8  -3 84454.0 3161.79  19
  -7  -8  -3 83481.6 1269.10   6
  -7  -8  -3 83372.8 1354.62   7
  -7   8  -4 22412.4 963.048   5
  -7  -8  -4 22766.9 679.929   6
  -7  -8  -4 22481.1 705.571   7
  -7   8  -4 21861.8 1388.17   1
  -7   8  -4 25061.0 1984.81   4
   7  -8   4 23618.2 1596.45   3
   7   8   4 22247.9 1347.71  18
  -7  -8  -4 22086.3 748.616  14
  -7  -8  -5 76877.2 1328.90  14
   7  -8   5 74213.8 1339.38  20
  -7   8  -5 76061.8 1788.49   5
  -7  -8  -5 77326.7 1275.58   6
  -7  -8  -5 75244.8 1293.08   7
   7   8   5 75592.0 2506.99  18
   7  -8   5 74201.9 2727.54   3
   7  -8   6 10013.3 477.262  20
  -7   8  -6 9346.49 650.986   5
  -7   8  -6 10329.6 553.215  15
  -7  -8  -6 9762.74 475.814   7
  -7  -8  -6 9662.17 466.003   6
  -7   8  -7 95363.3 1802.34  12
   7  -8   7 92535.2 1372.67  20
  -7   8  -7 87647.2 2032.30   5
  -7   8  -7 89929.5 1521.08  15
  -7  -8  -7 92863.8 1448.91   7
  -7  -8  -7 93493.9 1452.66   6
  -7   8  -8 7622.33 493.224  12
  -7   8  -8 6936.11 406.321  15
  -7   8  -8 5875.11 551.070   5
  -7  -8  -8 7036.87 408.943   7
  -7  -8  -8 7303.00 421.122   6
  -7   8  -8 6444.39 409.963   9
  -7   8  -9 5728.63 397.647  12
  -7   8  -9 5780.21 368.317   9
  -7  -8  -9 6024.52 378.785   6
  -7  -8  -9 5891.24 369.600   7
  -7   8  -9 5785.13 345.558  15
  -7   8 -10 4055.41 317.367  12
  -7   8 -10 3798.27 293.881   9
  -7  -8 -10 3855.18 298.757   7
  -7  -8 -10 3857.42 305.012   6
  -7   8 -10 3709.21 253.611  15
  -7   8 -11 10785.2 464.144  12
  -7   8 -11 9960.88 463.768   9
  -7  -8 -11 10641.1 467.346   7
  -7  -8 -11 10462.6 484.507   6
  -7   8 -11 10341.0 374.982  15
  -7  -8 -12 10443.5 447.532   7
  -7  -8 -12 10182.5 477.578   6
  -7   8 -12 10221.2 422.002  12
  -7   8 -12 9584.22 448.603   9
  -7   8 -13 49460.6 810.469  12
  -7  -8 -13 49911.4 931.164   7
  -7  -8 -13 49572.5 1025.12   6
  -7  -8 -14 277.181 91.8996   7
   7   9 -14 1228.58 90.7176  13
  -7   9  14 1224.18 89.0787   5
   7  -9 -14 1291.88 98.1388   6
  -7   9  13 4600.33 198.508  13
   7   9 -13 4703.45 206.545  13
  -7   9  13 4594.13 210.048   5
  -7   9  12 21150.5 558.061  13
   7   9 -12 22736.3 507.555  13
  -7   9  12 21012.3 508.356   5
  -7   9  11 660.836 119.664   5
   7   9 -11 553.815 103.612  13
  -7   9  11 478.467 124.657  13
  -7   9  10 52626.4 978.448   5
  -7   9  10 54291.7 1232.73  13
   7   9 -10 53246.0 937.279  13
  -7   9   9 546.185 117.318   5
   7   9  -9 382.838 115.542  13
  -7   9   9 437.431 165.401  13
  -7   9   8 4041.38 320.543   5
  -7   9   8 4538.55 482.330  13
   7   9  -8 3766.15 298.144  13
  -7   9   7 14072.5 624.590   5
  -7  -9   7 14278.0 635.349  20
  -7   9   7 13623.0 929.705  13
   7   9  -7 13827.0 600.578  13
  -7   9   6 84265.4 1602.19   5
  -7  -9   6 84320.9 1600.46  20
  -7   9   6 82326.1 2739.08  13
   7   9  -6 83817.5 1562.87  13
  -7   9   5 9961.97 596.888   5
  -7  -9   5 10128.3 594.591  20
  -7   9   5 10161.6 961.420  13
   7   9  -5 9400.65 560.802  13
  -7  -9   4 98872.0 1864.91  20
   7   9  -4 99271.7 1867.45  13
  -7   9   4 103627. 2636.96  13
  -7   9   3 27826.7 1144.16   5
  -7  -9   3 28377.1 1008.85  20
   7   9  -3 31162.7 1060.41  13
  -7   9   3 31754.8 1309.85  13
  -7   9   2 1000.40 237.351  13
   7  -9  -2 142.441 277.452   3
  -7   9   2 627.796 188.064   5
  -7  -9   2 1214.47 226.963  20
   7   9  -2 259.283 243.282  18
  -7  -9   2 548.888 320.088  19
  -7   9   1 4054.94 400.660  13
  -7   9   1 4256.21 595.488   1
   7  -9  -1 4179.55 920.382   3
  -7   9   1 3757.76 490.474   5
  -7  -9   1 4760.01 389.177  20
   7   9  -1 3718.80 612.616  18
  -7  -9   1 3714.86 687.792  19
  -7  -9   0 72591.2 1840.19  14
  -7   9   0 80585.4 1641.23  13
  -7   9   0 75592.8 2448.01   1
   7  -9   0 79052.8 3808.39   3
  -7   9   0 74055.5 1982.18   5
  -7  -9   0 80390.0 3089.71  19
   7   9   0 80825.0 2765.32  18
  -7  -9  -1 282.049 134.019  14
  -7   9  -1 256.599 122.718  13
  -7   9  -1 438.217 233.872   1
  -7  -9  -1 422.723 110.206   6
  -7   9  -1 133.439 157.664   5
   7   9   1 326.415 219.256  18
  -7  -9  -1 372.820 260.602  19
   7  -9   1 308.020 258.182  19
  -7  -9  -2 54759.9 1309.00  14
   7   9   2 54738.4 2203.49  18
  -7   9  -2 51957.3 1530.95   5
  -7  -9  -2 52348.0 2510.93  19
  -7  -9  -2 54800.1 1016.65   6
  -7   9  -2 53716.8 1224.20  13
  -7   9  -3 19024.6 701.543  13
  -7   9  -3 19125.1 909.658   5
  -7  -9  -3 19448.6 719.375  14
  -7  -9  -3 18449.0 601.792   6
  -7  -9  -4 21.5632 86.8521   6
  -7  -9  -4 43.6834 108.161   7
  -7   9  -4 141.295 81.5167  13
   7  -9   5 22040.7 742.029  20
  -7   9  -5 21493.7 965.636   5
  -7   9  -5 22855.9 857.058  15
  -7  -9  -5 22621.7 689.094   6
  -7  -9  -5 23112.7 733.552   7
   7  -9   6 112464. 1600.81  20
  -7   9  -6 115630. 1773.11  15
  -7  -9  -6 114104. 1570.50   6
  -7  -9  -6 116944. 1644.01   7
  -7  -9  -7 434.500 137.125   7
  -7   9  -7 248.699 168.720  12
   7  -9   7 376.498 116.348  20
  -7  -9  -7 382.757 135.437   6
  -7   9  -7 289.256 150.813   5
  -7   9  -7 286.817 129.965  15
  -7   9  -7 302.043 127.690   9
  -7   9  -8 37592.5 1008.04  12
  -7   9  -8 34728.2 911.016   9
  -7   9  -8 34271.2 839.762  15
  -7   9  -8 33191.8 1264.04   5
  -7  -9  -8 35485.2 894.787   7
  -7  -9  -8 36780.6 895.104   6
  -7   9  -9 7711.77 434.467  12
  -7   9  -9 7393.14 410.970   9
  -7   9  -9 7480.80 355.543  15
  -7   9  -9 7150.18 594.655   5
  -7  -9  -9 7196.46 398.849   6
  -7  -9  -9 7623.85 414.350   7
  -7  -9 -10 283.013 99.5500   6
  -7   9 -10 108.422 84.5275   9
  -7  -9 -10 341.398 118.362   7
  -7   9 -10 306.174 124.787  12
  -7   9 -11 4478.66 300.034   9
  -7  -9 -11 4296.84 300.406   6
  -7  -9 -11 4342.52 296.566   7
  -7   9 -11 4103.96 273.550  12
  -7   9 -12 31328.5 638.861  12
  -7  -9 -12 30659.3 774.576   6
  -7  -9 -12 30820.8 738.179   7
  -7  -9 -13 958.116 145.317   6
  -7   9 -13 775.084 97.0450  12
  -7  -9 -13 1095.35 143.180   7
   7 -10 -13 3605.26 171.506   6
  -7  10  13 3199.74 142.999   5
   7  10 -13 3499.77 151.972  13
  -7  10  12 345.873 72.5357   5
  -7  10  12 381.504 74.1754  13
   7  10 -12 354.949 69.7342  13
  -7  10  11 53018.5 813.165   5
  -7  10  11 52821.8 908.023  13
   7  10 -11 55000.6 785.959  13
  -7  10  10 4316.94 267.568   5
  -7  10  10 3926.93 307.006  13
   7  10 -10 4258.08 249.319  13
  -7  10   9 47301.3 941.253   5
  -7  10   9 47058.3 1196.93  13
   7  10  -9 46417.2 880.646  13
  -7  10   8 15488.2 586.876   5
  -7  10   8 16591.5 824.721  13
   7  10  -8 16639.4 575.020  13
  -7  10   7 14936.9 619.240   5
  -7  10   7 14753.8 914.983  13
   7  10  -7 15775.1 602.691  13
  -7  10   6 15058.0 665.267   5
  -7 -10   6 16207.1 677.644  20
  -7  10   6 15988.2 1142.91  13
   7  10  -6 15318.6 637.632  13
  -7  10   5 44972.1 1223.55   5
  -7 -10   5 46037.7 1192.80  20
  -7  10   5 45987.3 1984.93  13
   7  10  -5 45194.2 1151.51  13
  -7  10   4 3655.74 375.288   5
  -7 -10   4 3828.65 371.200  20
  -7  10   4 4788.87 599.278  13
   7  10  -4 4336.25 381.567  13
  -7 -10   3 58000.3 1376.72  20
  -7  10   3 56736.3 1787.40  13
  -7  10   2 22511.1 1083.99   5
  -7 -10   2 24723.6 882.336  20
  -7  10   2 25303.2 1102.56  13
  -7  10   1 41012.9 1597.59   5
  -7 -10   1 41105.6 1077.14  20
  -7  10   1 44310.8 1336.72  13
  -7 -10   0 7008.55 555.558  14
  -7  10   0 7362.28 522.341  13
  -7  10   0 6581.58 625.342   5
  -7  10  -1 96631.9 1766.03  13
  -7  10  -1 97155.2 2240.02   5
  -7 -10  -1 102895. 1859.86  14
  -7 -10  -1 104344. 1378.28   6
  -7  10  -2 2985.39 396.252   5
   7 -10   2 3156.04 326.449  20
  -7 -10  -2 3153.11 251.272   6
  -7  10  -2 2995.65 305.983  13
  -7  10  -3 9824.35 670.933   5
   7 -10   3 10248.3 548.774  20
  -7 -10  -3 9526.21 430.164   6
  -7  10  -3 9523.45 509.380  13
  -7  10  -4 34626.5 1229.09   5
   7 -10   4 35256.0 967.819  20
  -7 -10  -4 35267.5 831.611   6
  -7  10  -4 33834.7 917.112  13
   7 -10   5 30339.4 865.091  20
  -7  10  -5 28326.2 1098.38   5
  -7 -10  -5 28458.6 754.627   6
  -7  10  -5 29118.3 921.737  15
  -7  10  -6 10376.0 596.766  12
   7 -10   6 9421.34 462.508  20
  -7  10  -6 8222.10 601.668   5
  -7 -10  -6 8849.51 428.581   6
  -7  10  -6 9293.34 479.183  15
  -7 -10  -7 68892.3 1246.08   7
  -7 -10  -7 68958.8 1174.94   6
  -7  10  -7 72255.5 1431.97  12
  -7  10  -7 68462.8 1183.98  15
  -7  10  -7 65503.3 1672.34   5
   7 -10   7 67487.5 1142.45  20
  -7  10  -7 73168.0 1319.59   9
  -7  10  -8 4120.35 330.662  12
  -7  10  -8 3422.40 285.644   9
  -7  10  -8 3799.67 258.177  15
  -7  10  -8 4147.37 439.352   5
  -7 -10  -8 3727.71 282.254   6
  -7 -10  -8 4367.20 318.513   7
  -7  10  -9 11943.0 490.292   9
  -7 -10  -9 11696.5 476.535   6
  -7 -10  -9 12347.9 502.851   7
  -7  10  -9 12879.6 508.306  12
  -7  10 -10 3092.72 250.266   9
  -7 -10 -10 2855.08 238.868   6
  -7 -10 -10 2981.15 252.175   7
  -7  10 -10 2756.13 229.718  12
  -7  10 -11 12648.5 467.321   9
  -7  10 -11 12955.6 407.020  12
  -7 -10 -11 13260.3 482.323   6
  -7  10 -12 5771.15 232.580  12
  -7 -10 -12 5891.33 318.910   6
  -7  11  12 20619.7 353.013   5
   7  11 -12 20969.7 352.356  13
  -7  11  11 251.310 70.8444   5
   7  11 -11 328.169 72.4530  13
  -7  11  11 322.999 75.0773  13
  -7  11  10 81047.8 993.548   5
  -7  11  10 81000.0 1126.14  13
   7  11 -10 83950.5 942.838  13
  -7  11   9 1738.00 174.318   5
  -7  11   9 1694.44 215.403  13
   7  11  -9 1471.18 153.048  13
  -7  11   8 368.186 107.083   5
  -7  11   8 443.561 161.470  13
   7  11  -8 332.317 90.7513  13
  -7  11   7 16285.0 597.290   5
  -7  11   7 15640.3 831.791  13
   7  11  -7 16152.4 544.014  13
  -7  11   6 27350.7 831.795   5
   7 -11  -6 28237.8 914.391  20
  -7  11   6 28770.5 1333.41  13
   7  11  -6 29235.6 782.290  13
  -7  11   5 291.711 124.502   5
   7 -11  -5 278.622 148.680  20
  -7 -11   5 445.485 148.836  20
  -7  11   5 17.9641 309.817  13
   7  11  -5 416.446 133.721  13
  -7  11   4 43768.6 1210.96   5
  -7 -11   4 43498.2 1093.17  20
   7  11  -4 43748.0 1048.58  13
  -7  11   3 32488.4 1123.70   5
  -7 -11   3 34697.3 977.769  20
  -7  11   2 19158.9 928.527   5
  -7 -11   2 22297.7 765.387  20
   7 -11  -2 20718.2 1000.83  20
  -7 -11   2 19239.6 986.777  14
  -7  11   2 21397.5 1025.70  13
  -7  11   1 8832.50 685.172   5
   7 -11  -1 10277.9 666.524  20
  -7 -11   1 9788.48 655.419  14
  -7  11   1 9800.13 652.114  13
  -7  11   0 67305.0 1981.03   5
   7 -11   0 69672.8 1621.53  20
  -7  11   0 67160.5 1574.01  13
  -7  11  -1 140.779 207.226   5
   7 -11   1 241.283 133.746  20
  -7  11  -1 360.346 135.633  13
  -7  11  -2 39790.3 1378.95   5
   7 -11   2 40670.5 1123.98  20
  -7 -11  -2 40034.8 836.655   6
  -7  11  -2 39122.5 1078.30  13
  -7  11  -3 26348.9 1090.70   5
   7 -11   3 27407.9 886.074  20
  -7 -11  -3 27567.3 702.625   6
  -7  11  -3 27309.2 860.103  13
  -7  11  -4 1412.71 196.802  13
  -7  11  -4 1733.48 277.708   5
   7 -11   4 1739.23 225.677  20
  -7  11  -4 1240.51 220.601  15
  -7 -11  -4 1470.24 169.859   6
  -7  11  -5 26409.6 769.557  13
   7 -11   5 27260.2 798.570  20
  -7 -11  -5 26480.7 690.591   6
  -7  11  -5 27469.4 823.610  15
  -7 -11  -6 42224.8 870.629   6
  -7  11  -6 43150.4 920.321  15
  -7  11  -6 40292.2 1259.46   5
  -7  11  -6 42555.4 1015.62   9
   7 -11   6 41923.4 925.763  20
  -7  11  -7 56.8997 161.157  12
   7 -11   7 203.584 93.8656  20
  -7 -11  -7 119.629 91.1197   6
  -7  11  -7 52.5005 131.999   5
  -7  11  -7-71.9635 124.507   9
  -7  11  -7 87.1323 69.4684  15
  -7  11  -8 42422.0 922.325  12
   7 -11   8 41424.9 772.398  20
  -7  11  -8 41924.4 907.984   9
  -7 -11  -8 40897.4 831.920   6
  -7  11  -9 2527.74 297.396   5
  -7  11  -9 2934.54 241.012   9
  -7 -11  -9 2780.11 223.321   6
  -7  11  -9 2699.40 216.150  12
  -7 -11 -10 741.970 124.707   6
  -7  11 -10 617.676 113.732   9
  -7  11 -10 701.003 106.907  12
  -7 -11 -11 5852.61 295.775   6
  -7  11 -11 5216.37 272.843   9
   7 -12 -10 2235.05 160.337   6
  -7  12  10 2001.25 134.237   5
  -7  12  10 2192.63 142.264  13
   7  12 -10 2024.86 126.582  13
  -7  12   9 19645.0 469.135   5
  -7  12   9 20556.8 547.732  13
   7  12  -9 19965.1 429.510  13
  -7  12   8 24576.0 587.309   5
  -7  12   8 24294.1 718.409  13
   7  12  -8 24642.2 525.426  13
  -7  12   7 6028.34 326.477   5
  -7  12   7 5858.52 425.755  13
   7  12  -7 6533.31 296.355  13
  -7  12   6 3817.99 286.663   5
   7 -12  -6 3915.09 269.136  20
  -7  12   6 4128.83 431.542  13
   7  12  -6 3905.43 246.503  13
  -7  12   5 22292.5 724.438   5
   7 -12  -5 21005.6 761.302  20
  -7  12   5 22882.7 1174.90  13
   7  12  -5 21650.7 600.106  13
  -7  12   4 494.652 176.957   5
   7 -12  -4 127.394 130.063  20
  -7  12   4-136.947 334.573  13
   7  12  -4 219.388 90.8715  13
  -7  12   3 15557.4 699.891   5
   7 -12  -3 16025.2 916.238  20
  -7 -12   3 16129.5 743.194  14
  -7  12   3 17720.1 1008.04  13
  -7  12   2 48188.5 1298.85   5
   7 -12  -2 50492.5 1532.85  20
  -7  12   2 51276.1 1573.14  13
  -7  12   1 3967.35 409.188   5
   7 -12  -1 4218.48 439.063  20
  -7  12   1 4054.64 427.789  13
  -7  12   0 5875.77 519.834   5
   7 -12   0 6780.91 513.778  20
  -7  12   0 6527.66 503.500  13
  -7  12  -1 69185.2 1824.44   5
   7 -12   1 74325.0 1575.91  20
  -7  12  -1 71420.7 1524.18  13
  -7  12  -2 2616.33 363.644   5
   7 -12   2 2965.44 313.888  20
  -7  12  -2 2868.32 305.180  13
  -7  12  -3 7595.96 573.081   5
   7 -12   3 7960.28 471.479  20
  -7 -12  -3 7796.87 352.599   6
  -7  12  -3 8172.52 467.764  13
  -7  12  -4 21113.6 709.462  13
   7 -12   4 20778.3 705.414  20
  -7  12  -4 18972.5 868.593   5
  -7 -12  -4 21155.2 574.101   6
  -7  12  -4 19566.5 695.615  15
  -7 -12  -5 14536.6 473.639   6
  -7  12  -5 13735.4 543.472  13
  -7  12  -5 14254.6 666.946  12
  -7  12  -5 14028.1 516.640  15
  -7  12  -5 13700.2 712.793   5
   7 -12   5 14674.7 558.029  20
  -7  12  -5 13399.1 586.396   9
  -7  12  -6 4877.54 352.909  12
  -7 -12  -6 5019.33 279.359   6
  -7  12  -6 4994.16 427.241   5
   7 -12   6 4903.79 306.254  20
  -7  12  -6 4862.58 342.145   9
  -7  12  -7 39487.5 861.426  12
  -7 -12  -7 36549.0 729.099   6
   7 -12   7 37810.9 763.750  20
  -7  12  -7 35706.8 1053.95   5
  -7  12  -7 38014.9 860.627   9
  -7  12  -8 280.673 105.258  12
  -7 -12  -8 297.387 94.6138   6
  -7  12  -8 242.184 103.658   5
   7 -12   8 371.592 89.3081  20
  -7  12  -8 391.832 119.195   9
  -7 -12  -9 7694.64 321.901   6
  -7  12  -9 7759.42 349.933   9
  -7  12  -9 8143.95 297.438  12
  -7 -12 -10 14528.7 420.261   6
  -7  13   9 8933.66 238.159   5
  -7  13   8 1679.64 129.652   5
   7 -13  -8 1394.95 121.895   6
   7  13  -8 1450.15 102.803  13
  -7  13   8 1729.79 150.909  13
  -7 -13   7 1256.59 115.678  14
   7  13  -7 1391.74 112.067  13
  -7  13   7 1511.20 177.187  13
   7 -13  -7 1513.74 147.009   6
  -7  13   7 1562.05 143.383   5
  -7  13   6 19393.5 696.065  13
   7  13  -6 19732.3 430.407  13
  -7  13   6 20664.2 542.371   5
   7  13  -5-28.3763 53.2656  13
  -7  13   5 66.1908 122.384  13
   7 -13  -5 67.2587 71.8628  20
  -7  13   5 55.1804 71.5668   5
   7 -13  -4 32340.8 855.835  20
  -7  13   4 32596.6 799.423   5
  -7  13   3 7735.85 651.066  13
   7 -13  -3 6831.43 475.232  20
  -7  13   3 6889.04 396.551   5
  -7  13   2 16.1144 167.379  13
   7 -13  -2-84.7215 188.068  20
  -7  13   2 37.5772 97.0695   5
   7 -13  -1 44727.8 1324.28  20
  -7  13   1 43407.0 1092.20   5
  -7  13   0 31202.2 1054.15  13
   7 -13   0 32153.5 1064.67  20
  -7  13   0 29108.7 928.441   5
  -7  13  -1 3489.23 344.999  13
   7 -13   1 3129.23 330.933  20
  -7  13  -1 3082.00 329.542   5
  -7  13  -2 37325.3 1016.10  13
   7 -13   2 38514.2 1033.60  20
  -7  13  -3 13051.9 543.212  15
  -7  13  -3 11939.3 621.587   5
   7 -13   3 13845.4 582.244  20
  -7  13  -3 13761.5 584.606  13
  -7  13  -4 368.249 160.621  12
  -7  13  -4 223.776 112.838   9
  -7  13  -4 337.094 128.976   5
   7 -13   4 403.277 103.230  20
  -7  13  -4 289.337 102.528  13
  -7  13  -5 5196.51 323.152  13
  -7  13  -5 5579.58 365.590  12
  -7 -13  -5 5400.29 264.152   6
  -7  13  -5 5143.76 375.118   5
   7 -13   5 5389.83 320.210  20
  -7  13  -5 5538.18 343.270   9
  -7 -13  -6 24925.4 541.934   6
   7 -13   6 24534.5 621.514  20
  -7  13  -6 25674.0 687.146   9
  -7  13  -7 2984.00 203.065  12
  -7  13  -7 2601.95 212.266   5
  -7  13  -7 2975.59 231.847   9
  -7 -13  -7 3197.36 198.071   6
   7 -13   7 3018.79 204.739  20
  -7 -13  -8 13666.8 374.467   6
  -7  13  -8 14067.3 452.715   9
  -7  14   6 2037.05 133.797   5
  -7  14   6 2028.29 162.127  13
  -7  14   5 45979.3 685.238   5
  -7  14   5 45600.2 875.305  13
   7 -14  -4 705.860 92.4501  20
  -7  14   4 488.271 94.3092   5
  -7  14   4 580.718 144.468  13
   7 -14  -3 5463.67 288.949  20
  -7  14   3 5252.81 275.968   5
  -7  14   3 5239.70 410.378  13
   7 -14  -2 34978.9 869.780  20
  -7  14   2 35938.7 748.690   5
  -7  14   2 37543.1 1222.17  13
   7 -14  -1 6945.72 462.579  20
  -7  14   1 7724.95 366.142   5
  -7  14   1 7836.49 543.441  13
   7 -14   0 10338.0 576.217  20
  -7  14   0 10889.2 445.280   5
  -7  14   0 11860.6 621.883  13
  -7  14  -1 35548.7 809.675   5
  -7  14  -1 38290.4 1038.56  13
   7 -14   1 37125.2 1016.54  20
  -7  14  -1 35451.7 903.493  15
  -7  14  -2 5737.79 384.217  13
  -7  14  -2 5208.31 313.792   5
   7 -14   2 5332.68 368.718  20
  -7  14  -2 4678.96 350.149   9
  -7  14  -3 8269.44 427.190  13
  -7  14  -3 6991.57 350.748   5
  -7  14  -3 7401.55 448.679  12
   7 -14   3 7644.47 415.004  20
  -7  14  -3 7512.80 419.437   9
  -7  14  -4 7129.99 360.177  13
  -7  14  -4 6998.35 327.715   5
  -7  14  -4 6849.81 373.392  12
   7 -14   4 8398.50 397.733  20
  -7  14  -4 8219.93 410.835   9
   7 -14   5 13600.7 464.651  20
  -7  14  -5 13691.5 485.092   9
  -7  14  -5 12729.3 416.864  12
  -7  14  -6 6249.14 306.376   9
  -7  15   3 19693.5 458.924  13
  -7  15   2 296.301 82.3388  13
  -7  15   2 240.679 54.8939   5
   7 -15  -1 17519.3 423.186  20
  -7  15   1 17714.4 516.328  13
  -7  15   1 17390.6 375.741   5
   7 -15   0 9472.16 359.257  20
  -7  15   0 9058.75 379.268  13
  -7  15   0 8397.06 267.997   5
  -7  15  -1 1.70600 61.0756  13
   7 -15   1-6.93446 67.0454  20
   7 -15   2 23865.9 644.221  20
  -8   0  16 16376.9 376.979   8
   8   0 -16 15859.9 325.035   7
   8   0 -16 16249.1 414.248  10
   8   0 -15 6.77410 74.9808   9
   8   0 -15 5.83369 70.0492  13
   8   0 -15 50.9258 75.2834  10
   8   0 -15-34.9652 59.6539   7
   8   0 -14 78024.5 1091.75   9
   8   0 -14 78508.9 1185.08  10
   8   0 -14 78350.5 1116.39  13
   8   0 -13-66.5551 98.6783   9
   8   0 -13-11.4255 97.6118  10
   8   0 -13 4.13539 92.0624  13
   8   0 -12 16936.6 571.403   9
   8   0 -12 17352.6 594.919  13
   8   0 -11 31.8417 85.9725   9
   8   0 -11-7.80230 87.1785  13
   8   0 -10 9423.41 437.141   9
   8   0 -10 8384.92 425.208  13
   8   0  -9 80.7323 73.1875  13
   8   0  -9-16.4589 88.4223   9
   8   0  -8 250603. 2224.40  13
   8   0  -8 250226. 2206.12   9
   8   0  -7 204.799 91.7996   9
   8   0  -7 33.7108 75.8530  13
   8   0  -7-273.203 175.594  18
   8   0  -7-460.008 174.895   3
   8   0  -6 54842.1 1907.55  18
   8   0  -6 57683.9 1776.44   3
   8   0  -5 78.7535 103.249  18
   8   0  -5-298.618 148.758   3
   8   0  -4 54464.1 1756.63  18
   8   0  -4 54911.3 1748.46   3
  -8   0   3-3.09373 193.937   1
   8   0  -3 20.1993 153.897   3
   8   0  -2 284273. 3760.97  18
   8   0  -2 279687. 4042.30   3
  -8   0   1 63.8381 173.292   1
   8   0  -1-242.411 136.350  18
   8   0  -1 38.2643 111.083   3
  -8   0   0 124497. 3170.60   1
   8   0   0 120424. 2355.58  18
   8   0   0 121518. 2878.49   3
   8   0   1 143.133 164.188   3
  -8   0  -1 271.524 132.813   4
  -8   0  -1 29.4825 189.837   1
   8   0   2 15986.7 1249.88   3
  -8   0  -2 17106.8 1009.35   4
  -8   0  -2 16653.8 1300.62   1
   8   0   3 20.6622 524.363   3
  -8   0  -3-722.459 270.875   4
  -8   0  -3-124.660 273.881   1
   8   0   4 346997. 6630.84   3
  -8   0  -4 343572. 5489.67   4
  -8   0  -5-311.894 272.235   4
   8   0   5 104.370 202.868   3
  -8   0  -5-464.838 310.086   1
  -8   0  -6 1429.10 233.805  15
  -8   0  -6 1211.10 191.538  14
  -8   0  -6 1339.68 171.112  10
  -8   0  -6 1778.02 514.513   1
  -8   0  -6 1708.25 216.056  11
  -8   0  -6 1042.27 420.303   4
  -8   0  -6 1294.19 190.315   8
  -8   0  -7 27.0141 91.9939   8
  -8   0  -7-74.8881 173.505  12
  -8   0  -7 77.7730 67.7976  10
  -8   0  -7-56.1835 101.100  11
  -8   0  -7 27.7525 119.351   6
  -8   0  -7 226.892 101.207  14
  -8   0  -7 19.9927 149.564  15
  -8   0  -8 88875.7 1645.19  15
  -8   0  -8 81119.1 1783.60  12
  -8   0  -8 86389.4 1475.17  11
  -8   0  -8 86000.8 1489.41   8
  -8   0  -8 86762.8 1378.52  10
  -8   0  -8 85138.0 1473.39  14
  -8   0  -8 84244.7 4078.96   4
  -8   0  -9 124.947 103.880  10
  -8   0  -9 119.587 178.355   4
  -8   0  -9 78.3760 112.983  11
  -8   0  -9-19.1008 156.844  12
  -8   0  -9 132.808 115.193  15
  -8   0  -9-90.5130 114.627  14
  -8   0 -10 113716. 1650.73  10
  -8   0 -10 112646. 2136.85  12
  -8   0 -10 109801. 1669.08  11
  -8   0 -10 112256. 1823.42  15
  -8   0 -10 110481. 1664.58  14
  -8   0 -11 82.6205 85.3088  10
  -8   0 -11 2.44454 90.7004  11
  -8   0 -11 34.6096 161.205  12
  -8   0 -11 53.7519 94.1376  14
  -8   0 -11 39.5887 107.829  15
  -8   0 -12 11304.3 551.076  15
  -8   0 -12 11892.2 533.084  10
  -8   0 -12 11497.7 521.174  11
  -8   0 -12 11267.8 662.813  12
  -8   0 -13-9.15409 96.8399  10
  -8   0 -13-234.143 253.216  12
  -8   0 -13-171.542 151.132  15
  -8   0 -14 27888.8 749.854  15
  -8   0 -14 26553.1 904.562  12
  -8   0 -14 26990.8 743.704  10
  -8   0 -15 301.621 195.863  12
  -8   0 -15 6365.54 369.318  15
  -8   0 -16 67837.2 1000.45  12
  -8   1  16 817.739 88.3741   8
   8   1 -16 691.623 91.0554   9
   8   1 -16 831.804 101.347  10
   8  -1 -16 768.339 99.8530  10
   8   1 -16 738.193 84.6383   7
   8   1 -15 85110.2 1008.06   9
   8   1 -15 83964.4 1078.92  10
   8  -1 -15 84655.4 1112.50  10
   8   1 -15 82794.9 1010.14  13
   8  -1 -14 1157.91 155.025  13
   8   1 -14 1368.37 156.508  13
   8   1 -14 1185.88 148.469   9
   8  -1 -14 1128.02 156.926  10
   8   1 -14 1422.97 170.363  10
   8  -1 -14 1223.64 155.007   9
   8  -1 -14 1169.70 132.235   7
   8  -1 -13 85451.7 1246.98   9
   8   1 -13 88192.9 1209.93   9
   8   1 -13 85665.2 1320.79  10
   8  -1 -13 86862.8 1350.55  10
   8  -1 -13 87915.0 1288.26  13
   8   1 -13 87193.7 1246.70  13
   8  -1 -12 533.277 124.046  13
   8   1 -12 404.797 109.409  13
   8  -1 -12 442.144 109.868   9
   8   1 -12 439.430 112.657   9
   8  -1 -11 15456.2 569.436   9
   8   1 -11 16041.7 553.435   9
   8  -1 -11 16267.0 598.637  13
   8   1 -11 16062.7 574.099  13
   8  -1 -10 220.390 96.3029   9
   8   1 -10 371.874 114.955   9
   8  -1 -10 247.625 91.6049  13
   8   1 -10 245.056 103.019  13
   8   1  -9 48919.6 986.318  13
   8  -1  -9 49692.8 1042.95  13
   8   1  -9 46342.6 1990.20  18
   8  -1  -9 47965.9 999.431   9
   8   1  -9 48298.9 961.757   9
   8  -1  -8 767.611 141.285   9
   8   1  -8 688.037 128.135   9
   8   1  -8 531.473 216.512  18
   8  -1  -8 744.896 142.558  13
   8   1  -8 659.497 125.222  13
   8  -1  -7 129423. 2638.48   3
   8   1  -7 125481. 2562.31   3
   8   1  -7 126609. 1520.53  13
   8  -1  -7 127809. 1634.34  13
   8   1  -7 128265. 3020.26  18
   8  -1  -7 122921. 3094.84  18
   8  -1  -7 124976. 1622.86   9
   8   1  -7 130337. 1514.54   9
   8  -1  -6 164.903 148.111  18
   8   1  -6 63.2832 111.614  18
   8   1  -6 324.076 154.803   3
   8  -1  -6 130.928 114.725   3
   8  -1  -5 13435.9 931.128  18
   8   1  -5 13974.2 938.817  18
   8   1  -5 13168.6 848.721   3
   8  -1  -5 13143.2 884.073   3
   8  -1  -4 10795.3 799.928  18
   8   1  -4 10580.4 797.832  18
  -8   1   4 10891.0 833.957   1
   8   1  -4 10459.3 760.535   3
   8  -1  -4 10058.4 779.634   3
   8  -1  -3 196186. 3266.39  18
   8   1  -3 200465. 3433.86  18
  -8   1   3 194059. 3642.26   1
   8  -1  -3 194906. 3467.28   3
   8   1  -2 829.931 264.702  18
   8  -1  -2 419.109 154.917  18
  -8   1   2 404.055 201.238   1
  -8  -1   2 498.557 215.322   1
   8  -1  -2 234.547 162.327   3
   8  -1  -1 99686.2 2162.80  18
   8   1  -1 104185. 2538.57  18
  -8   1   1 101956. 3040.03   1
  -8  -1   1 105425. 2607.63   1
   8  -1  -1 103846. 2713.51   3
   8   1   0 1845.98 364.863  18
  -8  -1   0 2122.60 405.607   1
  -8   1   0 2201.59 521.732   1
   8  -1   0 1799.18 398.772   3
  -8   1   0 2196.57 319.505   4
   8   1   0 1939.65 366.339   3
  -8  -1   0 1954.49 289.982   4
   8   1   1 13563.7 986.106  18
  -8   1  -1 14632.9 878.429   4
   8   1   1 16131.2 1063.53   3
   8  -1   1 14597.0 1193.38   3
  -8  -1  -1 16480.3 888.883   4
  -8   1  -1 15884.8 1395.33   1
  -8  -1  -1 15064.3 1062.25   1
   8   1   2 1569.99 360.818   3
  -8  -1  -2 1923.47 335.395   4
  -8   1  -2 2016.45 350.601   4
   8  -1   2 1518.63 479.355   3
  -8   1  -2 2156.20 538.699   1
  -8  -1  -2 1957.20 420.882   1
  -8   1  -3 313686. 4855.99   4
   8  -1   3 309826. 6564.84   3
  -8  -1  -3 296086. 4543.74   4
   8   1   3 300122. 5677.92   3
  -8  -1  -3 302066. 5018.55   1
  -8   1  -3 303108. 5976.15   1
  -8  -1  -4-60.1105 221.325   4
  -8   1  -4 178.204 162.125   4
   8  -1   4-5.56243 281.457   3
  -8   1  -4 400.110 308.430   1
  -8  -1  -4 530.042 285.848   1
   8  -1   5 163358. 3816.65   3
   8   1   5 173896. 4404.61   3
  -8  -1  -5 153191. 4027.49   4
  -8   1  -5 164899. 4340.60   4
  -8  -1  -5 158282. 3841.91   1
  -8   1  -5 152457. 4517.93   1
  -8   1  -6 2372.85 246.002   8
  -8  -1  -6 2204.84 240.681   8
  -8  -1  -6 2877.52 281.338  14
  -8   1  -6 2463.68 259.395  14
  -8  -1  -6 2539.38 249.368   6
  -8   1  -6 2524.35 257.698  11
  -8  -1  -6 2161.72 237.320  11
  -8   1  -6 2276.38 315.466  12
  -8   1  -6 2237.30 283.893  15
  -8  -1  -6 2191.68 285.664  15
  -8  -1  -6 2363.56 519.480   1
  -8   1  -6 1755.84 579.877   1
  -8  -1  -6 2852.90 638.156   4
  -8   1  -6 1953.04 550.888   4
  -8  -1  -6 2312.50 217.002  10
  -8   1  -6 2528.63 227.380  10
  -8   1  -7 11204.4 532.812   8
  -8  -1  -7 11871.2 549.413   8
  -8   1  -7 10988.4 593.015  15
  -8  -1  -7 11549.3 613.961  15
   8  -1   7 12254.0 1000.15  17
  -8   1  -7 11799.6 550.565  14
  -8  -1  -7 11803.8 550.725  14
  -8  -1  -7 11633.0 537.558   6
  -8  -1  -7 12465.4 716.264  12
  -8   1  -7 10590.5 516.371  11
  -8  -1  -7 11595.1 539.629  11
  -8   1  -7 11143.3 669.601  12
  -8   1  -7 12706.9 1513.02   1
  -8   1  -7 12221.6 506.763  10
  -8  -1  -7 11370.8 488.259  10
  -8  -1  -7 12586.5 1503.76   4
  -8   1  -7 11195.7 1465.20   4
  -8  -1  -8 1484.44 205.003   8
  -8   1  -8 1325.63 249.422  12
  -8   1  -8 1410.27 198.004  11
  -8  -1  -8 1422.08 198.821  11
  -8  -1  -8 974.548 236.518  12
  -8   1  -8 1363.11 179.366  10
  -8  -1  -8 1393.89 188.456  10
  -8  -1  -8 1176.79 185.603   6
  -8  -1  -8 1495.91 241.540  15
  -8   1  -8 1370.21 226.079  15
  -8   1  -8 1098.08 187.064  14
  -8  -1  -8 1514.29 211.280  14
  -8  -1  -8 1328.92 535.641   4
  -8   1  -8 1182.66 511.934   4
  -8   1  -9 97114.2 1918.70  12
  -8  -1  -9 94408.0 2025.82  12
  -8   1  -9 98201.8 1575.77  11
  -8  -1  -9 97447.7 1575.20  11
  -8  -1  -9 100274. 1775.98  15
  -8   1  -9 99768.1 1704.88  15
  -8  -1  -9 98946.0 1578.69  14
  -8   1  -9 98015.9 1601.58  14
  -8   1  -9 99484.6 1514.73  10
  -8  -1  -9 100370. 1526.84  10
  -8  -1 -10 778.060 154.093  11
  -8  -1 -10 886.941 252.518  12
  -8   1 -10 851.085 228.986  12
  -8   1 -10 982.085 178.040  11
  -8   1 -10 939.775 177.066  14
  -8  -1 -10 882.810 190.026  15
  -8  -1 -10 806.426 165.649  14
  -8   1 -10 821.147 184.644  15
  -8   1 -10 974.958 176.540  10
  -8  -1 -10 983.488 167.969  10
  -8   1 -11 34940.6 1140.40  12
  -8  -1 -11 34424.3 916.036  11
  -8   1 -11 34338.3 913.829  11
  -8  -1 -11 33833.7 1216.53  12
  -8   1 -11 34375.3 963.237  15
  -8  -1 -11 35270.0 1016.25  15
  -8   1 -11 33926.0 919.151  14
  -8  -1 -11 35551.7 911.409  14
  -8   1 -11 34090.3 905.280  10
  -8  -1 -11 34062.4 905.778  10
  -8  -1 -12 217.667 108.927  11
  -8   1 -12 238.056 109.939  11
  -8  -1 -12-98.5900 270.518  12
  -8   1 -12 296.193 169.137  12
  -8   1 -12 137.171 112.080  15
  -8  -1 -12 131.300 89.8216  14
  -8  -1 -12 149.863 125.392  15
  -8  -1 -12 288.509 119.529  10
  -8   1 -12 200.236 107.145  10
  -8  -1 -13-189.111 278.918  12
  -8   1 -13 135.739 237.801  12
  -8   1 -13 94.2368 112.257  15
  -8  -1 -13 246.116 123.146  15
  -8   1 -13 327.049 114.867  10
  -8  -1 -13 349.070 119.840  10
  -8  -1 -14 4377.80 306.438  10
  -8   1 -14 4166.95 303.243  10
  -8   1 -14 4011.78 290.812  15
  -8   1 -14 4028.20 351.872  12
  -8  -1 -14 4149.86 398.153  12
  -8   1 -15 78847.7 1068.78  15
  -8  -1 -15 83648.7 1445.80  12
  -8   1 -15 81911.1 1360.56  12
  -8   1 -16 1963.61 229.771  12
  -8  -2  16 3408.86 179.053   8
   8   2 -16 3433.74 171.037  13
   8   2 -16 3563.77 174.640   7
   8   2 -16 3864.30 182.782  10
   8  -2 -16 3817.18 200.225  10
   8   2 -16 3874.76 185.572   9
   8   2 -15 745.725 111.108  10
   8  -2 -15 645.818 110.022  10
   8   2 -15 502.389 94.5096  13
   8   2 -15 685.006 104.954   9
  -8   2  15 740.781 100.231   8
   8   2 -14 51401.7 842.437   9
   8   2 -14 50807.1 910.913  10
   8  -2 -14 52652.5 965.683  10
   8   2 -14 51414.8 869.329  13
   8   2 -13 784.791 142.406  10
   8  -2 -13 997.051 161.517  10
   8   2 -13 1069.52 148.581  13
   8  -2 -13 1008.11 151.697  13
   8  -2 -13 797.800 141.688   9
   8   2 -13 1005.40 139.541   9
   8  -2 -12 20256.9 651.299   9
   8   2 -12 20137.9 591.583   9
   8   2 -12 21660.5 635.797  13
   8  -2 -12 20906.1 671.409  13
   8  -2 -11 145.880 86.0850  13
   8   2 -11 115.726 86.4055  13
   8  -2 -11 93.2278 99.9753   9
   8   2 -11 95.3140 85.2827   9
   8  -2 -10 58264.2 1171.16  13
   8   2 -10 60220.2 1090.68  13
   8  -2 -10 58036.1 1124.88   9
   8   2 -10 58846.3 1038.11   9
   8   2  -9 2187.55 217.059  13
   8  -2  -9 1891.26 225.570  13
   8   2  -9 2422.32 469.752  18
   8  -2  -9 2020.01 228.444   9
   8   2  -9 2110.61 210.421   9
   8  -2  -8 169985. 1998.29  13
   8   2  -8 167524. 1771.30  13
   8  -2  -8 162214. 1907.00   9
   8   2  -8 169457. 1711.57   9
   8   2  -8 167757. 3603.31  18
   8  -2  -7 217.759 88.7597  13
   8   2  -7 303.054 89.7860  13
   8   2  -7 430.561 173.239   3
   8  -2  -7 543.998 131.329   9
   8   2  -7 299.595 91.6694   9
   8   2  -7 243.720 131.491  18
   8   2  -6 56178.4 1766.78   3
   8  -2  -6 59898.9 1896.98   3
  -8   2   6 58716.5 1869.74   2
   8   2  -6 56933.2 1989.26  18
   8  -2  -6 58331.2 1182.99  13
   8  -2  -6 57390.9 1184.81   9
   8   2  -5 5605.10 616.303  18
   8  -2  -5 5964.07 619.151   3
  -8   2   5 6301.69 622.588   2
  -8   2   5 6701.28 648.825   1
   8   2  -4 94868.4 2544.71  18
   8  -2  -4 101826. 2643.19  18
   8  -2  -4 98163.9 2563.40   3
  -8   2   4 97560.0 2534.36   2
  -8   2   4 100504. 2611.25   1
   8   2  -3 10394.1 875.352  18
   8  -2  -3 9882.95 794.941  18
   8  -2  -3 10196.2 852.952   3
  -8   2   3 9177.03 827.370   2
  -8   2   3 9573.36 882.636   1
   8   2  -2 349635. 5325.41  18
   8  -2  -2 364462. 5222.63   3
  -8   2   2 362225. 5929.81   1
   8   2  -1-52.2304 264.676  18
  -8   2   1-133.479 99.7655   4
   8  -2  -1 89.5926 133.472   3
  -8   2   1-61.2908 268.865   1
   8   2   0 35349.1 1835.51  18
  -8   2   0 39108.5 1389.26   4
   8  -2   0 35571.2 1883.83   3
  -8   2   0 35690.4 1943.28   1
   8   2   1 99.4677 158.627  18
  -8  -2  -1 209.422 118.231   4
  -8   2  -1-37.4392 94.5310   4
   8  -2   1 205.409 232.704   3
  -8  -2  -1 36.2516 180.007   1
  -8   2  -1 306.632 203.362   1
   8   2   2 51734.0 1907.85  18
  -8   2  -2 52902.6 1886.88   4
   8  -2   2 53173.1 2834.43   3
  -8  -2  -2 50963.0 1719.19   4
  -8  -2  -2 51460.1 1933.83   1
  -8   2  -2 53492.8 2285.01   1
  -8   2  -3 7445.76 768.914   4
   8   2   3 7307.58 835.643   3
   8  -2   3 7664.66 985.419   3
  -8  -2  -3 7719.39 742.994   4
  -8  -2  -3 8343.58 799.286   1
  -8   2  -3 7983.37 896.993   1
  -8   2  -4 127147. 3512.98   4
   8  -2   4 129742. 3663.75   3
  -8  -2  -4 121752. 3209.79   4
   8   2   4 127032. 4034.56   3
  -8  -2  -4 125115. 3232.47   1
  -8   2  -4 124045. 3581.57   1
  -8  -2  -5 11675.0 557.457  14
  -8  -2  -5 11135.7 1044.06   1
  -8   2  -5 10691.0 1109.73   1
  -8  -2  -5 11473.1 529.267  11
  -8   2  -5 10999.3 620.982  15
  -8   2  -5 11613.7 1189.54   4
   8  -2   5 10153.7 934.512   3
  -8  -2  -5 10710.9 1055.88   4
   8   2   5 12218.7 1257.49   3
  -8  -2  -5 10994.0 522.746   8
  -8   2  -6 5582.05 373.104   8
  -8  -2  -6 5336.14 369.451   8
  -8   2  -6 5425.15 432.978  15
  -8  -2  -6 5770.05 454.679  15
  -8  -2  -6 5643.21 385.771  14
  -8   2  -6 5440.15 379.452  14
  -8  -2  -6 7236.66 398.011   6
  -8   2  -6 5309.20 464.085  12
  -8  -2  -6 5442.51 370.670  11
  -8   2  -6 5410.96 365.536  11
  -8   2  -6 6064.34 864.446   1
  -8   2  -6 5789.66 339.506  10
  -8  -2  -6 5560.51 336.205  10
  -8  -2  -6 5710.03 868.527   4
  -8   2  -6 6578.83 1016.95   4
  -8  -2  -7 1085.26 180.140   8
  -8   2  -7 1367.43 202.345   8
   8  -2   7 851.407 300.606  17
  -8  -2  -7 1225.34 186.960  14
  -8   2  -7 1285.75 214.440  15
  -8   2  -7 1221.14 195.951  14
  -8  -2  -7 1153.94 214.820  15
  -8  -2  -7 1292.04 157.176   7
  -8   2  -7 1272.15 196.044  11
  -8  -2  -7 1415.22 197.950  11
  -8  -2  -7 1067.56 242.744  12
  -8   2  -7 1071.80 246.297  12
  -8   2  -7 83.2673 249.432   1
  -8  -2  -7 1227.16 174.169   6
  -8  -2  -7 1324.77 176.865  10
  -8   2  -7 1355.24 174.731  10
  -8  -2  -7 41.9027 202.216   4
  -8   2  -7 1101.95 491.531   4
  -8   2  -8 46281.4 1183.51  15
  -8  -2  -8 48765.4 1286.15  15
   8  -2   8 46117.6 2040.50  17
  -8   2  -8 46526.0 1114.56  14
  -8  -2  -8 46388.3 1080.27  14
  -8  -2  -8 47684.1 919.372   7
  -8  -2  -8 46443.7 1066.87   6
  -8   2  -8 45294.6 1309.25  12
  -8   2  -8 47619.1 1099.16  11
  -8  -2  -8 46969.1 1090.40  11
  -8  -2  -8 44533.2 1417.45  12
  -8   2  -8 46788.4 1016.03  10
  -8  -2  -8 46746.3 1014.99  10
  -8  -2  -8 47763.1 3134.83   4
  -8   2  -8 46229.6 3075.66   4
  -8  -2  -8 46392.4 1092.24   8
  -8   2  -9 184.499 99.7549  11
  -8  -2  -9 178.194 193.502  12
  -8  -2  -9 202.190 102.348  11
  -8   2  -9 9.68109 140.288  12
  -8  -2  -9 119.920 93.9318  10
  -8   2  -9 319.936 121.328  10
  -8  -2  -9 69.5485 85.5588   6
  -8  -2  -9 171.880 104.430  14
  -8   2  -9 567.466 149.391  14
  -8   2  -9 142.639 114.675  15
  -8  -2  -9 176.565 139.211  15
  -8  -2  -9 166.181 74.5510   7
  -8   2 -10 90415.2 1497.09  11
  -8  -2 -10 89870.9 1488.88  11
  -8  -2 -10 89908.4 2062.98  12
  -8   2 -10 91189.3 1814.55  12
  -8   2 -10 91756.8 1590.37  15
  -8  -2 -10 95881.1 1749.79  15
  -8   2 -10 89787.0 1452.25  10
  -8  -2 -10 89383.3 1449.46  10
  -8   2 -10 91453.7 1545.05  14
  -8  -2 -10 89799.4 1468.52  14
  -8  -2 -10 94588.5 1662.61   6
  -8  -2 -10 90522.8 1293.08   7
  -8   2 -11 5585.02 462.174  12
  -8  -2 -11 5534.40 367.287  11
  -8   2 -11 5059.56 356.267  11
  -8  -2 -11 4236.96 436.761  12
  -8   2 -11 5586.11 389.252  15
  -8  -2 -11 5260.53 419.256  15
  -8  -2 -11 5419.66 366.876  10
  -8   2 -11 5472.76 367.123  10
  -8  -2 -11 5523.09 359.164  14
  -8  -2 -11 4952.65 305.154   7
  -8   2 -12 8437.58 541.192  12
  -8   2 -12 8102.86 430.698  11
  -8  -2 -12 8234.58 436.133  11
  -8  -2 -12 7609.90 572.471  12
  -8   2 -12 8137.15 444.486  15
  -8  -2 -12 8393.75 501.874  15
  -8  -2 -12 8628.86 452.111  10
  -8   2 -12 8294.20 438.214  10
  -8  -2 -12 8588.67 427.676  14
  -8  -2 -12 7794.40 372.184   7
  -8  -2 -13 1180.48 272.183  12
  -8   2 -13 1156.71 232.749  12
  -8   2 -13 1222.12 173.186  10
  -8  -2 -13 1125.61 173.743  10
  -8   2 -13 898.875 154.124  15
  -8  -2 -13 880.333 128.104   7
  -8  -2 -14 35414.3 833.573  10
  -8  -2 -14 33743.6 664.706   7
  -8  -2 -14 39702.9 947.265  15
  -8   2 -14 35480.9 780.562  15
  -8  -2 -14 37824.0 1106.55  12
  -8   2 -14 34520.0 956.637  12
  -8   2 -15 3974.82 269.678  15
  -8   2 -15 1681.62 212.087  12
  -8   2 -16 45208.4 793.098  12
   8  -3 -16 338.105 67.6971  10
   8   3 -16 299.914 56.4554  13
   8   3 -16 218.832 58.2534   7
  -8  -3  16 378.826 67.9985   8
   8   3 -16 264.308 58.9942   9
   8   3 -15 43399.6 672.352   9
   8   3 -15 42983.2 675.314  10
   8  -3 -15 43621.5 755.220  10
   8   3 -15 43078.1 685.372  13
   8   3 -14 1940.49 169.334   9
   8   3 -14 2008.39 181.064  10
   8  -3 -14 1891.00 189.298  10
  -8   3  14 1834.22 152.707   8
   8   3 -14 1790.00 165.212  13
   8   3 -13 114784. 1302.42   9
   8  -3 -13 112754. 1490.60  10
   8   3 -13 112522. 1414.57  10
   8   3 -13 116924. 1368.31  13
   8   3 -12-21.1278 94.8619   9
   8   3 -12 90.5896 79.5404  10
   8   3 -12 65.7647 78.7549  13
   8  -3 -11 737.807 153.388   9
   8   3 -11 1322.54 169.592   9
   8   3 -11 942.715 155.461  13
   8  -3 -11 928.579 173.247  13
   8  -3 -10 12.5582 117.821   9
   8   3 -10 132.863 98.5459   9
   8   3 -10 44.4887 81.6438  13
   8  -3 -10 112.604 104.023  13
   8   3  -9 125109. 1548.63  13
   8  -3  -9 127551. 1814.54  13
   8   3  -9 121730. 1475.19   9
   8  -3  -9 123327. 1718.87   9
   8   3  -9 118916. 3127.37  18
  -8  -3   9 128819. 3258.48  17
   8   3  -8 6131.88 345.950  13
   8  -3  -8 5867.66 399.983  13
  -8   3   8 5463.03 608.002   2
   8   3  -8 5823.14 323.615   9
   8  -3  -8 5889.84 385.590   9
   8   3  -8 5775.73 688.599  18
  -8  -3   8 5567.85 682.017  17
   8   3  -7 51711.1 971.129  13
   8  -3  -7 52396.0 1189.51  13
   8   3  -7 51356.2 1985.52  18
   8   3  -7 51845.0 910.006   9
   8  -3  -7 53246.0 1179.82   9
  -8   3   7 52176.1 1882.10   2
   8  -3  -6 28236.1 1382.67   3
   8   3  -6 27241.1 689.762  13
  -8   3   6 28942.5 1412.46   2
   8  -3  -6 29069.1 912.143  13
   8   3  -6 29098.7 1487.50  18
  -8   3   5 342.702 167.616   2
  -8   3   5 311.862 174.253   1
   8   3  -5 796.535 257.216  18
   8  -3  -4 5511.58 659.994   3
  -8   3   4 5345.79 658.089   2
   8   3  -4 4878.43 658.530  18
  -8   3   4 5611.29 668.445   1
   8  -3  -3 226866. 4346.33   3
  -8   3   3 236643. 4571.16   2
   8   3  -3 240167. 4821.90  18
  -8   3   3 235571. 4805.38   1
  -8  -3   3 225898. 4252.40  19
   8  -3  -2 393.694 232.620   3
   8   3  -2 268.616 301.099  18
  -8  -3   2 398.728 254.561  19
  -8   3   2 127.593 237.226   1
  -8   3   1 133816. 2558.07   4
   8  -3  -1 133360. 3751.15   3
   8   3  -1 142015. 3799.39  18
  -8   3   1 143180. 3760.76   1
  -8  -3   1 149961. 3476.05  19
  -8   3   0 118.526 117.151   4
   8  -3   0-264.310 248.465   3
   8   3   0 120.162 191.066  18
  -8  -3   0 325.234 182.047  19
  -8   3   0 411.089 231.926   1
  -8   3  -1 44702.5 1670.21   4
   8  -3   1 44665.9 2741.12   3
  -8  -3  -1 42783.3 1481.27   4
   8   3   1 40211.3 1720.49  18
  -8   3  -1 42884.4 1926.50   1
  -8  -3  -1 42348.5 1790.40  19
  -8   3  -2 10623.9 887.058   4
   8  -3   2 13688.4 1404.64   3
  -8  -3  -2 11404.3 839.394   4
   8   3   2 12616.9 903.065  18
  -8   3  -2 12556.0 1040.83   1
  -8  -3  -2 12020.0 964.235  19
   8   3   3 199549. 3432.56  18
  -8   3  -3 208710. 4242.68   4
   8  -3   3 206223. 4958.91   3
  -8  -3  -3 191337. 3728.50   4
  -8   3  -3 205094. 4228.26   1
  -8  -3  -4-15.4967 131.378   4
  -8   3  -4 489.443 221.438   4
   8  -3   4 328.199 220.143   3
  -8   3  -4 428.769 279.899   1
  -8  -3  -5 113026. 1748.47  14
  -8   3  -5 110179. 2016.70  15
  -8  -3  -5 110073. 1332.47   7
  -8  -3  -5 114340. 1518.46   6
  -8   3  -5 114673. 1650.73  11
  -8  -3  -5 112243. 1644.24  11
  -8   3  -5 107857. 2137.05  12
  -8   3  -5 118956. 3879.61   4
   8  -3   5 116766. 3181.31   3
  -8  -3  -5 111932. 3451.84   4
  -8   3  -5 117019. 3393.84   1
  -8  -3  -5 113340. 1458.92  10
  -8  -3  -5 111711. 1668.40   8
  -8  -3  -6 1728.45 212.946   8
  -8   3  -6 1897.87 228.513   8
  -8   3  -6 1788.00 271.166  15
  -8  -3  -6 1772.68 223.714  14
  -8   3  -6 1850.66 234.792  14
  -8  -3  -6 1585.66 257.508  15
  -8  -3  -6 1642.45 175.897   7
  -8  -3  -6 1676.33 192.023   6
  -8   3  -6 1901.08 222.919  11
  -8  -3  -6 1942.62 225.443  11
  -8   3  -6 1965.54 311.276  12
  -8   3  -6 1093.89 382.775   1
  -8  -3  -6 1731.02 193.189  10
  -8  -3  -6 1241.16 409.179   4
  -8   3  -6 1059.89 436.310   4
  -8  -3  -7 239.289 104.014   8
  -8   3  -7 224.701 104.291   8
   8  -3   7 125.565 292.737  17
  -8   3  -7 228.471 140.526  15
  -8  -3  -7 243.016 135.050  15
  -8  -3  -7 203.218 98.9029  14
  -8   3  -7 224.701 114.644  14
  -8  -3  -7 930.069 140.874   7
  -8   3  -7 310.785 191.928  12
  -8   3  -7 405.872 245.861   1
  -8  -3  -7 338.175 100.464   6
  -8   3  -7 347.293 103.040  11
  -8   3  -7 139.839 91.0164  10
  -8  -3  -7 55.7979 100.031  11
  -8  -3  -7 90.5325 98.8187  10
  -8   3  -7 512.870 362.196   4
   8  -3   8 174.698 215.708  17
  -8   3  -8 472.879 130.179  14
  -8  -3  -8 112.711 140.203  15
  -8  -3  -8 139.560 105.811  14
  -8   3  -8 196.665 143.112  15
  -8  -3  -8 116.957 77.0574   7
  -8   3  -8 92.7068 95.7970  11
  -8  -3  -8 104.370 96.0196  11
  -8   3  -8 124.080 175.815  12
  -8  -3  -8 166.914 110.191   8
  -8  -3  -8 303.029 105.035   6
  -8  -3  -8 859.158 478.470   4
  -8   3  -8 252.751 337.591   4
  -8  -3  -8 116.102 85.0900  10
  -8   3  -8 7.66633 80.1148  10
  -8  -3  -9 97853.9 1391.25   7
  -8  -3  -9 100883. 1597.91   6
  -8   3  -9 101174. 1575.59  11
  -8  -3  -9 102462. 1586.73  11
  -8   3  -9 104285. 1942.92  12
  -8  -3  -9 102473. 2316.49  12
  -8  -3  -9 104844. 1956.21  15
  -8   3  -9 101880. 1701.17  15
  -8   3  -9 100926. 1654.78  14
  -8  -3  -9 103289. 1579.55  14
  -8  -3  -9 101941. 1525.60  10
  -8   3  -9 99895.6 1503.78  10
  -8   3 -10-117.771 118.077  11
  -8  -3 -10 6.64332 99.3999  11
  -8   3 -10 93.3120 147.833  12
  -8  -3 -10 43.4384 90.0218  10
  -8   3 -10 185.641 101.311  10
  -8  -3 -10 24.9455 86.7582   6
  -8   3 -10 66.6276 110.235  15
  -8  -3 -10 200.544 114.843  14
  -8  -3 -10-24.9964 170.941  15
  -8  -3 -10-43.4244 84.3661   7
  -8   3 -11 44841.6 1011.33  11
  -8  -3 -11 46627.9 1031.04  11
  -8   3 -11 47771.0 1245.92  12
  -8  -3 -11 41946.9 1434.00  12
  -8  -3 -11 43905.5 974.789  14
  -8  -3 -11 45480.7 1021.81  10
  -8   3 -11 45045.5 1010.31  10
  -8   3 -11 43680.0 1042.29  15
  -8  -3 -11 45630.5 1226.82  15
  -8  -3 -11 43746.7 1139.52   6
  -8  -3 -11 43465.7 918.567   7
  -8   3 -12 1294.89 185.160  11
  -8  -3 -12 1266.38 178.719  11
  -8  -3 -12 966.565 273.044  12
  -8   3 -12 1363.56 235.516  12
  -8  -3 -12 1120.73 159.210  14
  -8  -3 -12 1217.02 182.850  10
  -8   3 -12 1176.65 176.700  10
  -8   3 -12 1308.87 195.837  15
  -8  -3 -12 953.646 143.624   7
  -8  -3 -13 8275.46 419.260  10
  -8  -3 -13 7836.15 358.724   7
  -8   3 -13 8013.39 394.082  15
  -8   3 -13 8207.63 488.774  12
  -8  -3 -13 9387.46 643.730  12
  -8   3 -14 3787.19 317.319  12
  -8  -3 -14 4277.38 247.582   7
  -8  -3 -14 4432.18 296.446  10
  -8   3 -14 4078.61 257.050  15
  -8   3 -15 29163.0 568.915  15
  -8   3 -15 29812.2 753.199  12
  -8  -4  16 3611.13 163.832   8
   8  -4 -16 3914.22 169.385  10
   8   4 -16 3816.54 157.692   9
   8   4 -16 4091.09 173.782   7
   8   4 -16 3904.05 157.748  13
   8   4 -15 1214.87 117.233   9
   8  -4 -15 847.654 111.922  10
   8   4 -15 1111.23 113.540  13
   8   4 -14 57047.3 818.348   9
   8   4 -14 55553.4 813.934  10
   8  -4 -14 56986.1 930.315  10
   8   4 -14 56375.6 843.745  13
   8   4 -13 4776.01 263.372   9
   8   4 -13 4813.37 278.539  10
   8  -4 -13 4421.39 294.598  10
   8   4 -13 4555.83 271.842  13
   8   4 -12 38116.2 762.909   9
   8   4 -12 37727.3 829.670  10
   8  -4 -12 38786.8 900.401  10
   8   4 -12 38662.2 807.236  13
   8   4 -11 1644.58 176.463   9
   8   4 -11 1750.32 190.807  13
   8   4 -10 81070.2 1162.94   9
   8   4 -10 80637.8 1231.99  13
   8   4  -9 388.773 115.940   9
   8   4  -9 368.951 108.987  13
   8   4  -8 164920. 1641.51   9
   8   4  -8 163729. 1766.19  13
   8   4  -8 165575. 3675.09  18
  -8  -4   8 169598. 3665.26  17
  -8   4   8 160774. 3508.66   2
   8  -4  -8 171769. 2250.44  13
   8   4  -7 5195.21 318.115  13
  -8   4   7 5657.37 653.855   2
   8   4  -7 5223.70 672.168  18
  -8  -4   7 6041.37 687.890  17
   8  -4  -7 5710.58 427.049  13
   8   4  -6 53329.6 984.054  13
   8   4  -6 56603.6 2190.31  18
   8  -4  -6 56245.3 2065.71   3
  -8   4   6 55759.8 2119.06   2
   8  -4  -6 56179.5 1371.67  13
  -8   4   5-21.0342 104.374   2
  -8   4   5 7.05140 161.087   1
   8   4  -5 68.0450 67.6882  13
   8  -4  -5 464.665 213.288   3
   8   4  -5 131.968 176.031  18
  -8  -4   5 170.019 189.244  19
  -8   4   4 35421.6 1794.36   2
   8  -4  -4 36630.8 1817.33   3
  -8  -4   4 34622.7 1797.19  19
  -8   4   4 36570.5 1825.12   1
   8   4  -4 34612.0 1919.35  18
   8  -4  -3 18667.0 1358.86   3
  -8   4   3 16209.1 1307.02   2
  -8  -4   3 18452.5 1339.13  19
  -8   4   3 18984.1 1511.27   1
   8   4  -3 17751.1 1523.79  18
   8  -4  -2 285169. 5723.69   3
  -8  -4   2 283099. 5392.42  19
  -8   4   2 287601. 5383.78   1
   8   4  -2 279724. 5649.34  18
  -8   4   1 23459.9 1140.00   4
   8  -4  -1 21569.8 1724.14   3
  -8  -4   1 21774.9 1514.41  19
  -8   4   1 22916.9 1447.47   1
   8   4  -1 23165.4 1482.71  18
  -8   4   0 85943.6 2293.57   4
   8  -4   0 88109.2 3981.36   3
  -8  -4   0 91274.4 3096.95  19
  -8   4   0 85114.8 2683.01   1
   8   4   0 85875.9 2627.01  18
  -8   4  -1 16055.4 1058.31   4
   8  -4   1 15673.9 1627.44   3
  -8  -4  -1 15847.8 1252.14  19
  -8   4  -1 15248.6 1118.16   1
   8   4   1 16646.8 1086.20  18
  -8   4  -2 39099.5 1758.08   4
   8  -4   2 39820.4 2360.67   3
  -8  -4  -2 39480.8 1914.71  19
  -8   4  -2 37653.8 1755.40   1
   8   4   2 39719.4 1610.66  18
  -8   4  -3 1634.63 392.897   1
  -8   4  -3 1495.18 381.018   4
   8  -4   3 1312.89 450.789   3
   8   4   3 1437.25 320.075  18
  -8  -4  -3 1103.80 323.324  19
   8  -4   4 110376. 3399.83   3
  -8  -4  -4 110127. 1358.54   7
  -8  -4  -4 112980. 1483.33   6
  -8  -4  -4 111002. 1633.71  11
  -8  -4  -4 113155. 1836.50  14
  -8   4  -4 110614. 2137.74  15
  -8   4  -4 109334. 3109.98   1
  -8  -4  -4 110829. 1669.11   8
  -8  -4  -4 111416. 3212.36   4
  -8   4  -5 4674.11 817.161   4
   8  -4   5 4313.77 643.420   3
  -8   4  -5 4739.78 379.023  14
  -8  -4  -5 4790.73 375.486  14
  -8   4  -5 4172.50 406.622  15
  -8  -4  -5 4630.65 289.458   7
  -8  -4  -5 4589.29 311.771   6
  -8   4  -5 4881.46 493.015  12
  -8   4  -5 4521.86 331.660  11
  -8  -4  -5 4301.31 323.962  11
  -8   4  -5 4422.09 675.260   1
  -8  -4  -5 5002.48 738.116   4
  -8  -4  -5 4799.77 352.364   8
  -8   4  -5 4634.70 338.279   8
  -8  -4  -6 12238.2 557.840   8
  -8   4  -6 12611.7 553.578   8
  -8   4  -6 12395.8 656.843  15
  -8  -4  -6 10330.8 652.564  15
  -8   4  -6 12427.0 602.561  14
  -8  -4  -6 11565.4 560.848  14
  -8  -4  -6 12191.6 473.455   7
  -8  -4  -6 11755.2 503.567   6
  -8   4  -6 12672.5 745.430  12
  -8   4  -6 12364.4 544.816  11
  -8  -4  -6 11693.0 531.788  11
  -8   4  -6 12357.5 1146.79   1
  -8  -4  -6 13161.1 1338.86   4
  -8  -4  -6 12392.8 494.436  10
  -8   4  -6 11657.0 1421.34   4
   8  -4   7 3509.84 617.687  17
  -8   4  -7 4426.26 390.351  15
  -8  -4  -7 3882.34 404.615  15
  -8  -4  -7 3578.93 312.006  14
  -8   4  -7 3946.57 344.674  14
  -8  -4  -7 3864.43 279.897   7
  -8  -4  -7 3752.74 298.418   6
  -8   4  -7 4982.98 472.921  12
  -8   4  -7 4118.18 320.260  11
  -8  -4  -7 4017.00 314.507  11
  -8  -4  -7 4060.38 293.809  10
  -8   4  -7 4265.70 766.371   1
  -8  -4  -7 3894.74 318.459   8
  -8   4  -7 3719.12 954.337   4
  -8   4  -8 61457.8 1514.12  12
  -8   4  -8 60599.8 1209.42  11
  -8  -4  -8 58132.3 1184.08  11
  -8  -4  -8 55820.4 1451.77  12
  -8  -4  -8 59609.3 1093.06   7
  -8  -4  -8 59331.3 1179.59   6
  -8  -4  -8 59736.5 1134.04  10
  -8   4  -8 60360.7 1340.55  15
  -8  -4  -8 59185.3 1569.78  15
  -8   4  -8 61004.5 1327.11  14
  -8  -4  -8 60304.6 1218.58  14
  -8   4  -9 6404.71 494.698  12
  -8  -4  -9 5534.81 509.321  12
  -8  -4  -9 6220.39 389.239  11
  -8   4  -9 5987.65 383.478  11
  -8  -4  -9 6335.99 366.294   7
  -8  -4  -9 5988.37 396.347   6
  -8  -4  -9 6148.56 376.665  10
  -8   4  -9 6013.25 415.991  15
  -8  -4  -9 5507.01 482.934  15
  -8  -4  -9 6270.96 388.145  14
  -8   4 -10 129469. 2058.10  12
  -8  -4 -10 123929. 1684.90  11
  -8   4 -10 126903. 1709.87  11
  -8  -4 -10 122944. 2465.29  12
  -8  -4 -10 124124. 1583.96   7
  -8  -4 -10 124217. 1779.19   6
  -8  -4 -10 123837. 1666.45  10
  -8  -4 -10 125529. 2177.82  15
  -8   4 -10 126886. 1790.91  15
  -8  -4 -10 123159. 1637.85  14
  -8   4 -11 2160.01 286.275  12
  -8  -4 -11 2799.93 463.927  12
  -8  -4 -11 2349.59 238.670  11
  -8   4 -11 2113.28 224.921  11
  -8  -4 -11 2183.23 219.795   7
  -8  -4 -11 2389.25 267.268   6
  -8  -4 -11 2275.00 233.491  10
  -8   4 -11 2620.54 261.858  15
  -8  -4 -11 2424.01 227.782  14
  -8   4 -12 2564.98 286.495  12
  -8  -4 -12 2832.99 291.349   6
  -8  -4 -12 2533.14 224.650   7
  -8  -4 -12 2776.91 248.613  10
  -8   4 -12 2970.24 258.605  15
  -8  -4 -12 2627.94 222.134  14
  -8  -4 -13 1562.02 183.100  10
  -8  -4 -13 1355.95 160.883   7
  -8   4 -13 1258.51 154.332  15
  -8   4 -14 22434.8 690.433  12
  -8  -4 -14 21612.4 550.457   7
  -8   4 -14 22164.3 542.313  15
  -8  -4 -15 1152.01 118.760   7
  -8   4 -15 1140.76 149.353  12
   8   5 -15 34061.9 540.946  13
   8   5 -15 34831.4 520.561   9
   8  -5 -15 34412.7 553.820  10
  -8  -5  15 35207.4 564.253   8
   8   5 -14 391.248 85.0667  13
   8  -5 -14 231.716 75.9147  10
   8   5 -14 400.288 81.3854   9
   8   5 -13 81698.9 1058.94  13
   8   5 -13 80449.2 991.448   9
   8  -5 -13 79291.5 1135.94  10
   8   5 -12 7391.02 348.855  13
   8   5 -12 7669.13 330.973   9
   8  -5 -12 7319.55 378.663  10
   8   5 -11 3255.93 246.137  13
   8   5 -11 3277.53 231.168   9
   8   5 -10 894.837 144.094  13
   8   5 -10 873.808 136.242   9
   8   5  -9 72071.6 1176.69  13
   8   5  -9 75561.7 1089.40   9
   8   5  -8 4268.28 296.415  13
  -8   5   7 68858.7 2444.40   2
   8   5  -7 70641.2 2475.84  18
   8   5  -7 72994.0 1196.06  13
   8  -5  -6 1517.16 362.952   3
   8   5  -6 2202.44 468.009  18
  -8  -5   6 1931.61 464.129  19
  -8   5   6 1527.24 365.609   2
   8   5  -6 1931.05 201.926  13
   8   5  -5 1155.06 158.653  13
   8   5  -5 1329.03 412.902  18
  -8  -5   5 821.896 330.823  19
   8  -5  -5 1104.52 314.699   3
  -8   5   5 1597.01 388.535   2
  -8  -5   5 1055.95 193.235   8
  -8  -5   4 54962.5 1369.75   8
   8   5  -4 56902.9 2705.69  18
  -8  -5   4 51467.0 2422.65  19
  -8   5   4 51907.7 2358.91   1
  -8   5   4 54178.1 2403.97   2
   8  -5  -4 58106.0 2474.48   3
  -8  -5   3 175946. 2800.90   8
  -8   5   3 182990. 4513.62   1
  -8  -5   3 173932. 4624.01  19
   8  -5  -3 188867. 4743.46   3
  -8   5   3 183203. 4723.07   2
   8   5  -3 176769. 4908.02  18
  -8   5   2 28700.5 1669.88   1
  -8  -5   2 30653.0 1997.82  19
   8  -5  -2 29899.2 2063.63   3
   8   5  -2 25731.4 1696.10  18
  -8   5   1 137838. 3463.04   1
  -8  -5   1 147616. 4478.08  19
   8  -5  -1 137278. 4921.82   3
  -8   5   1 144015. 3019.15   4
   8   5  -1 131933. 3517.68  18
  -8   5   0 14897.1 1107.36   1
   8   5   0 14258.9 1082.59  18
  -8  -5   0 14669.3 1433.96  19
   8  -5   0 13937.5 1664.23   3
  -8   5   0 14243.5 991.969   4
  -8   5  -1 14439.6 1085.82   1
   8   5   1 14584.3 1040.87  18
  -8  -5  -1 13013.8 801.254  14
  -8  -5  -1 14716.6 1416.04  19
   8  -5   1 14825.1 1592.62   3
  -8   5  -1 13383.7 1029.54   4
  -8  -5  -2 4370.87 289.251   7
  -8  -5  -2 4194.18 286.323   6
  -8   5  -2 4038.14 586.812   1
  -8  -5  -2 5090.26 458.068  14
   8   5   2 4197.32 542.663  18
  -8  -5  -2 4822.83 807.019  19
   8  -5   2 4993.04 859.079   3
  -8   5  -2 4813.37 651.532   4
  -8  -5  -3 159347. 4168.99  19
  -8  -5  -3 169483. 2408.34  14
  -8  -5  -3 158746. 1748.31   6
  -8  -5  -3 158545. 1695.00   7
  -8   5  -3 161831. 3692.45   1
  -8  -5  -3 163674. 2060.72   8
   8  -5   3 168064. 4523.08   3
  -8   5  -3 168816. 4118.66   4
   8   5   3 159027. 3249.23  18
   8   5   4 185.848 140.327  18
   8  -5   4 25.2279 138.941   3
  -8  -5  -4-34.9040 104.265  14
  -8  -5  -4 38.3474 75.6210   7
  -8  -5  -4 22.5769 107.445  11
  -8  -5  -4-15.8206 75.4766   6
  -8  -5  -4-19.0543 91.1466   8
  -8   5  -4 143.997 210.657   1
  -8   5  -5 61187.7 1543.94  15
  -8  -5  -5 61703.6 1318.36  14
  -8   5  -5 60580.5 1182.68  11
  -8  -5  -5 58542.1 1168.60  11
  -8  -5  -5 61023.4 1070.84   7
  -8  -5  -5 59443.8 1119.53   6
   8  -5   5 60151.6 2400.66   3
  -8   5  -5 65526.9 3086.97   4
  -8  -5  -5 61452.9 1239.87   8
  -8   5  -5 59919.0 2385.79   1
  -8   5  -6 2164.30 294.122  15
  -8  -5  -6 2078.19 242.106  14
  -8  -5  -6 1332.38 249.956  15
  -8   5  -6 2590.49 303.833  14
  -8  -5  -6 2072.73 212.054   7
  -8  -5  -6 2291.66 232.615   6
  -8   5  -6 2155.04 234.937  11
  -8  -5  -6 2254.59 232.542  11
  -8   5  -6 2251.92 326.418  12
  -8   5  -6 1414.79 557.610   4
  -8   5  -6 2230.99 529.774   1
  -8  -5  -6 2017.16 231.193   8
  -8  -5  -7 1006.12 168.806   8
   8  -5   7 1054.24 328.163  17
  -8  -5  -7 1435.41 181.939   7
  -8  -5  -7 1970.02 224.217   6
  -8   5  -7 898.130 156.704  11
  -8   5  -7 961.961 212.469  12
  -8  -5  -7 1134.24 168.879  11
  -8   5  -7 1091.61 214.540  15
  -8  -5  -7 1375.24 198.406  14
  -8  -5  -7 1278.38 244.680  15
  -8  -5  -7 1131.53 153.423  10
  -8   5  -7 985.038 369.924   1
  -8   5  -7 449.320 393.937   4
  -8  -5  -8 8487.48 421.087   7
  -8  -5  -8 8046.07 438.593   6
  -8  -5  -8 7804.63 597.759  15
  -8   5  -8 7752.12 491.363  15
  -8  -5  -8 8212.68 417.358  10
  -8   5  -8 8175.15 569.582  12
  -8  -5  -8 7557.72 418.452  11
  -8   5  -8 7942.20 430.803  11
  -8  -5  -8 8151.95 445.695  14
  -8  -5  -9 77451.7 1272.51   7
  -8  -5  -9 74843.7 1343.63   6
  -8  -5  -9 75300.9 1292.82  11
  -8   5  -9 80470.8 1654.72  12
  -8  -5  -9 75615.5 1835.80  12
  -8   5  -9 76629.1 1309.28  11
  -8   5  -9 79317.0 1452.09  15
  -8  -5  -9 74987.3 1808.71  15
  -8  -5  -9 75093.8 1258.62  10
  -8  -5  -9 76206.8 1298.41  14
  -8  -5 -10 257.970 112.922   7
  -8   5 -10 189.364 102.491  11
  -8  -5 -10 342.160 111.272  11
  -8   5 -10 213.535 166.435  12
  -8  -5 -10 208.864 119.016   6
  -8  -5 -10 344.903 113.764  10
  -8  -5 -10 279.406 106.156  14
  -8   5 -10 384.921 137.765  15
  -8  -5 -11 49267.8 1576.55  12
  -8   5 -11 47574.5 1162.65  12
  -8   5 -11 44850.4 954.215  11
  -8  -5 -11 43373.9 938.103  11
  -8  -5 -11 43071.0 878.149  14
  -8  -5 -11 45461.5 954.761  10
  -8  -5 -11 44819.6 938.102   7
  -8  -5 -11 46177.5 1083.37   6
  -8   5 -11 44414.9 975.345  15
  -8  -5 -12 13302.0 499.824  10
  -8  -5 -12 13220.4 492.277   7
  -8  -5 -12 13757.7 610.777   6
  -8   5 -12 14820.1 620.733  12
  -8   5 -12 13591.8 500.382  15
  -8  -5 -13 4828.55 285.443   7
  -8  -5 -13 4898.52 360.942   6
  -8   5 -13 4982.88 276.553  15
  -8   5 -13 5852.40 373.383  12
  -8  -5 -14 1531.65 156.398   7
  -8   5 -14 1122.90 115.092  15
  -8   5 -14 1284.50 169.433  12
  -8   5 -15 28506.6 613.261  12
  -8  -6  15 969.315 87.9215   8
   8   6 -15 934.175 90.2882  13
   8   6 -15 982.799 82.1101   9
  -8  -6  14 34014.9 586.626   8
   8   6 -14 34474.8 586.832  13
   8   6 -14 35463.6 546.768   9
   8  -6 -14 33567.6 566.040  10
  -8  -6  13 1660.85 157.019   8
   8   6 -13 1403.03 142.717  13
   8   6 -13 1322.64 129.535   9
   8  -6 -13 1271.01 138.725  10
   8   6 -12 13957.5 451.236  13
   8  -6 -12 13009.6 464.191  10
   8   6 -12 12989.4 404.163   9
   8   6 -11 24160.7 627.648  13
   8   6 -11 23784.0 569.783   9
   8  -6 -11 24285.1 680.272  10
   8   6 -10 18246.0 569.503  13
   8   6 -10 16142.8 483.149   9
   8   6  -9 260.125 104.466  13
   8   6  -9 414.109 109.539   9
   8   6  -8 128640. 1591.01  13
   8   6  -7 924.116 151.951  13
  -8  -6   7 958.288 161.339   8
   8   6  -6 44790.4 956.497  13
  -8  -6   6 43982.9 1082.28   8
   8   6  -6 45157.0 2132.50  18
  -8   6   6 44133.2 2110.27   2
  -8  -6   6 46099.0 2206.48  19
  -8   6   5 1328.22 387.079   2
   8  -6  -5 1145.11 371.182   3
   8   6  -5 1299.43 493.228  18
  -8  -6   5 571.541 296.562  19
   8   6  -5 920.899 153.374  13
  -8  -6   5 809.829 187.627   8
   8   6  -4 109326. 1467.32  13
  -8   6   4 120186. 3801.92   1
  -8  -6   4 108980. 2021.87   8
   8   6  -4 108328. 4077.04  18
   8  -6  -4 117643. 3787.65   3
  -8   6   4 112521. 3700.52   2
  -8  -6   4 123438. 4054.33  19
  -8   6   3 10300.7 1064.53   1
  -8  -6   3 11082.4 750.636   8
   8   6  -3 10499.3 1210.52  18
   8  -6  -3 10918.7 1233.97   3
  -8   6   3 11074.3 1263.60   2
  -8  -6   3 11808.9 1357.77  19
  -8   6   2 205069. 4408.58   1
  -8  -6   2 195847. 3221.87   8
   8   6  -2 200015. 4789.91  18
   8  -6  -2 212159. 6016.35   3
  -8  -6   2 201709. 5692.53  19
  -8  -6   1 5595.69 937.109  19
  -8   6   1 7364.47 818.547   1
  -8  -6   1 6231.82 523.650   8
   8   6  -1 5622.74 747.354  18
   8  -6  -1 6583.73 1235.52   3
  -8  -6   1 6546.41 390.289   6
  -8  -6   0 49418.6 1005.26   6
  -8   6   0 49467.7 1257.28  13
  -8   6   0 46588.5 1971.51   1
   8   6   0 48672.8 2043.89  18
  -8  -6   0 50192.3 1320.48   8
  -8  -6   0 44735.8 2563.35  19
   8  -6   0 51957.2 3275.90   3
  -8   6   0 49446.6 1973.18   4
   8   6   1 25219.2 1411.55  18
  -8  -6  -1 24039.7 685.924   6
  -8   6  -1 22300.5 1359.70   1
  -8  -6  -1 23414.1 1092.84  14
  -8  -6  -1 24537.1 855.367   8
  -8  -6  -1 23499.1 1856.48  19
   8  -6   1 25194.3 2109.71   3
  -8   6  -1 24459.0 1436.32   4
   8   6   2 41651.4 1767.61  18
  -8  -6  -2 38385.7 1264.80  14
  -8  -6  -2 36960.0 850.570   6
  -8   6  -2 38784.0 1801.85   1
  -8  -6  -2 37181.6 1007.50   8
  -8  -6  -2 35375.0 2305.58  19
   8  -6   2 40589.6 2464.55   3
  -8   6  -2 39686.7 1941.54   4
  -8  -6  -3 576.395 146.470   8
  -8  -6  -3 461.736 121.139   7
  -8  -6  -3 432.854 114.787   6
  -8  -6  -3 502.253 164.786  14
   8   6   3 314.550 192.526  18
   8  -6   3 240.562 225.524   3
  -8   6  -3 1089.07 396.244   4
  -8   6  -3 724.492 306.190   1
  -8  -6  -4 104263. 1608.67   8
  -8  -6  -4 105968. 1471.16   6
  -8  -6  -4 106504. 1444.92   7
  -8   6  -4 104779. 3090.66   1
  -8  -6  -4 106904. 1823.30  14
   8   6   4 105118. 2783.23  18
  -8   6  -4 110491. 3759.17   4
   8  -6   4 108935. 3500.73   3
  -8   6  -5 1039.56 239.168  15
  -8  -6  -5 1124.05 193.430  14
  -8  -6  -5 931.326 152.967   7
  -8  -6  -5 866.533 156.589   8
  -8  -6  -5 914.770 158.827   6
   8  -6   5 229.568 151.941   3
  -8   6  -5 343.954 223.256   4
  -8   6  -5 1135.94 364.544   1
   8  -6   6 3665.97 692.730  17
  -8  -6  -6 3963.21 293.172   7
  -8  -6  -6 3764.48 293.772   6
  -8   6  -6 3879.22 423.740  12
  -8  -6  -6 3685.15 317.924  14
  -8   6  -6 3976.65 389.744  15
  -8  -6  -6 3691.28 297.080   8
  -8   6  -6 4104.39 904.458   4
  -8   6  -6 3437.40 612.479   1
  -8   6  -7 24123.9 883.704  15
  -8  -6  -7 26919.7 1109.88  15
  -8  -6  -7 24190.3 771.384  14
  -8  -6  -7 23980.9 712.629   7
  -8  -6  -7 25294.0 761.863   6
  -8   6  -7 25567.1 1032.93  12
  -8   6  -8 49372.3 1185.31  15
  -8  -6  -8 51586.6 1605.41  15
  -8  -6  -8 49598.3 1058.59  14
  -8  -6  -8 51413.2 1040.05   7
  -8  -6  -8 48882.2 1071.53   6
  -8   6  -8 50028.7 1367.41  12
  -8   6  -9 2471.35 262.454  15
  -8  -6  -9 2649.99 239.839  14
  -8  -6  -9 2666.10 248.574   7
  -8  -6  -9 2694.30 267.638   6
  -8   6  -9 2616.31 318.878  12
  -8   6 -10 73190.0 1278.40  15
  -8  -6 -10 72797.9 1150.21  14
  -8  -6 -10 74907.7 1231.82   7
  -8  -6 -10 72184.4 1311.27   6
  -8   6 -10 77050.7 1514.41  12
  -8  -6 -10 73026.1 1200.13  11
  -8   6 -11 4899.46 316.923  15
  -8  -6 -11 4890.68 276.460  14
  -8   6 -11 4779.01 363.834  12
  -8  -6 -11 4795.74 312.647   7
  -8  -6 -11 4698.48 346.839   6
  -8   6 -12 10587.0 410.225  15
  -8   6 -12 10609.9 492.842  12
  -8  -6 -12 10589.3 435.005   7
  -8  -6 -12 11382.8 532.722   6
  -8   6 -13 1062.35 118.964  15
  -8  -6 -13 1162.69 150.158   7
  -8   6 -13 1382.89 184.320  12
  -8  -6 -13 1004.60 172.461   6
  -8  -6 -14 22906.1 548.922   7
  -8   6 -14 23343.8 595.977  12
  -8   7  14 49.3526 36.0737   5
   8   7 -14 6.85417 42.6023  13
  -8   7  14 38.6327 42.2979  13
   8   7 -14 62.3711 41.4705   9
  -8  -7  14 2.21008 40.0501   8
  -8   7  13 28545.8 614.897  13
  -8  -7  13 28471.0 548.752   8
   8   7 -13 28644.1 557.298  13
   8   7 -13 29015.5 492.397   9
  -8  -7  12 14089.0 438.231   8
   8   7 -12 14005.6 430.767  13
   8   7 -12 14506.5 387.683   9
  -8  -7  11 1525.47 164.086   8
   8   7 -11 1619.47 165.105  13
   8   7 -11 1682.26 146.067   9
  -8  -7  10 6576.54 350.119   8
   8   7 -10 6635.69 340.091  13
  -8  -7   9 38152.2 871.893   8
   8   7  -9 37968.1 832.148  13
  -8  -7   8 18331.4 635.838   8
   8   7  -8 18341.2 603.037  13
  -8  -7   7 113773. 1650.49   8
   8   7  -7 112902. 1520.38  13
  -8  -7   6 397.763 134.359   8
   8   7  -6 457.440 124.526  13
  -8   7   6 828.715 157.538   5
  -8  -7   5 31105.1 2060.95  19
  -8   7   5 28368.8 856.902   5
   8   7  -5 28915.8 1945.77  18
   8   7  -5 29012.7 788.941  13
  -8  -7   5 28856.4 973.461   8
  -8   7   5 29304.5 1902.83   2
   8  -7  -5 28943.8 1822.58   3
  -8  -7   4 39441.6 2483.08  19
  -8   7   4 41391.9 1080.61   5
  -8  -7   4 39307.0 1273.99   8
  -8   7   4 38077.2 2287.43   2
   8  -7  -4 44730.9 2440.94   3
   8   7  -4 40652.2 924.239  13
   8   7  -4 39380.1 2632.71  18
   8  -7  -3 128894. 4530.05   3
  -8  -7   3 129631. 4686.95  19
   8   7  -3 131382. 4333.78  18
  -8   7   3 127871. 3694.24   1
   8  -7  -2 3463.97 839.313   3
   8   7  -2 2799.64 593.985  18
  -8  -7   2 3578.12 783.022  19
  -8   7   2 3183.94 575.801   1
  -8  -7   1 86200.7 1409.48   6
  -8   7   1 80821.7 2664.95   1
  -8   7   1 87306.6 1924.98  13
   8  -7  -1 91526.7 4814.92   3
  -8  -7   1 80890.8 3486.76  19
   8   7  -1 82397.5 2924.07  18
  -8  -7   0 11406.0 493.158   6
  -8   7   0 11524.8 635.677  13
  -8   7   0 10897.7 961.501   1
   8  -7   0 12724.5 1682.76   3
  -8  -7   0 10813.8 1280.51  19
   8   7   0 10570.9 1001.72  18
  -8   7  -1 253.296 116.001  13
  -8  -7  -1 592.102 185.483  14
  -8   7  -1 550.855 233.165   1
   8  -7   1-279.565 271.949   3
  -8   7  -1-14.9973 162.137   4
   8   7   1 814.935 316.671  18
  -8  -7  -1 95.0095 250.723  19
  -8  -7  -1 316.408 100.022   6
  -8  -7  -2 5601.82 498.546  14
   8   7   2 5299.38 677.457  18
  -8  -7  -2 5793.45 944.122  19
  -8  -7  -2 5844.36 350.762   6
  -8   7  -2 6014.77 734.016   1
  -8   7  -2 6771.90 849.213   4
   8  -7   2 5236.02 901.507   3
  -8  -7  -3 151876. 2313.68  14
   8   7   3 153372. 3517.93  18
  -8  -7  -3 154218. 1772.33   6
  -8  -7  -3 155896. 1828.18   7
  -8   7  -3 151915. 3683.40   1
  -8   7  -3 155364. 4252.36   4
   8  -7   3 161197. 4695.78   3
  -8  -7  -4 1823.92 258.185  14
   8   7   4 1690.07 382.541  18
  -8   7  -4 1546.62 426.621   1
   8  -7   4 1208.75 387.446   3
  -8   7  -4 2588.57 594.630   4
  -8  -7  -4 1660.71 201.414   6
  -8  -7  -4 1714.41 211.209   7
  -8   7  -5 136354. 2352.87  15
  -8  -7  -5 129257. 1887.08  14
  -8  -7  -5 131363. 1685.56   6
  -8  -7  -5 134009. 1693.74   7
  -8   7  -6 6516.86 559.706  12
  -8  -7  -6 6380.77 380.609   7
  -8  -7  -6 6897.21 397.000   6
  -8   7  -6 5878.08 469.023  15
  -8  -7  -6 6039.33 392.707  14
   8  -7   6 6017.85 365.759  20
  -8   7  -7 17636.7 740.077  15
  -8  -7  -7 16903.3 622.403  14
  -8  -7  -7 16517.9 599.734   7
  -8  -7  -7 16551.7 616.792   6
  -8   7  -7 17125.6 840.492  12
  -8   7  -8 16246.5 772.289  12
  -8  -7  -8 15782.2 571.889  14
  -8   7  -8 15242.9 641.263  15
  -8  -7  -8 15973.5 584.390   7
  -8  -7  -8 15623.2 603.862   6
  -8   7  -8 15421.2 619.913   9
  -8   7  -9 62353.3 1397.76  12
  -8  -7  -9 60957.6 1042.71  14
  -8   7  -9 62983.6 1212.17  15
  -8  -7  -9 61145.8 1127.67   7
  -8  -7  -9 62798.7 1199.46   6
  -8   7  -9 58934.1 1174.86   9
  -8  -7 -10 529.332 142.444   6
  -8   7 -10 333.062 100.950  15
  -8   7 -10 729.981 199.481  12
  -8  -7 -10 581.589 136.260   7
  -8   7 -11 22373.8 723.516  12
  -8  -7 -11 20973.9 621.889   7
  -8  -7 -11 21590.8 699.295   6
  -8   7 -11 20812.4 585.772  15
  -8   7 -12 7180.54 384.445  12
  -8  -7 -12 6407.06 333.482   7
  -8  -7 -12 6712.96 393.465   6
  -8   7 -12 6386.40 288.042  15
  -8  -7 -13 378.936 99.6145   7
  -8   7 -13 245.974 104.899  12
  -8  -7 -13 391.767 111.243   6
  -8  -7 -14 767.442 110.005   7
  -8   7 -14 220.970 87.6939  12
   8   8 -14 37401.1 487.623  13
  -8   8  13 5683.07 215.581   5
  -8   8  13 5643.12 239.941  13
   8   8 -13 5897.33 234.160  13
  -8   8  12 11272.0 352.490   5
  -8   8  12 11449.3 417.937  13
  -8  -8  12 11160.1 334.074   8
   8   8 -12 11630.8 363.815  13
  -8   8  11 13850.4 434.392   5
  -8   8  11 13776.1 530.900  13
  -8  -8  11 13458.4 416.783   8
   8   8 -11 14102.2 437.432  13
  -8  -8  10 9275.98 380.966   8
  -8   8  10 9613.58 393.384   5
   8   8 -10 10283.5 400.632  13
  -8  -8   9 584.349 120.279   8
   8   8  -9 692.535 132.207  13
  -8   8   9 714.224 133.691   5
   8   8  -8 97837.3 1353.30  13
  -8  -8   8 96000.6 1399.58   8
  -8   8   7 807.200 159.138   5
   8   8  -7 696.179 144.686  13
  -8   8   6 41341.8 1001.72   5
   8   8  -6 39397.4 910.170  13
  -8   8   5 6175.39 406.209   5
   8   8  -5 6785.45 386.340  13
  -8   8   4 37801.9 1039.35   5
   8   8  -4 39093.1 916.685  13
  -8   8   3 3378.13 332.368   5
  -8   8   3 4478.93 580.768  13
  -8   8   2 79713.2 2125.68  13
  -8   8   2 74543.2 2711.10   1
   8  -8  -2 74820.5 3983.29   3
  -8   8   2 69128.0 1547.82   5
   8   8  -2 80858.6 3236.17  18
  -8  -8   2 74919.7 3483.06  19
  -8  -8   1 13597.5 1457.67  19
  -8   8   1 13887.8 1121.61   1
   8  -8  -1 17632.9 2171.22   3
   8   8  -1 14184.8 1269.88  18
  -8   8   1 15279.2 835.006  13
   8  -8   0 46904.6 3263.14   3
  -8   8   0 43056.8 1281.02  13
  -8  -8   0 41606.4 2511.27  19
  -8   8   0 45128.7 2005.52   1
  -8  -8   0 42161.0 1597.40  14
   8   8   0 50077.9 2267.45  18
  -8  -8   0 46185.7 1003.02   6
  -8   8  -1 36644.9 1917.42   4
   8  -8   1 39391.0 2773.33   3
  -8   8  -1 36330.1 1090.75  13
  -8  -8  -1 35954.9 2341.90  19
  -8   8  -1 31933.0 1694.29   1
  -8  -8  -1 36830.3 1347.79  14
   8   8   1 39746.6 1943.49  18
  -8  -8  -1 36466.7 869.332   6
  -8   8  -2 27996.4 1755.66   4
   8  -8   2 26584.3 2114.95   3
  -8  -8  -2 26599.9 1043.08  14
   8   8   2 30834.5 1676.96  18
  -8  -8  -2 27871.0 2095.19  19
  -8  -8  -2 26934.7 747.411   6
  -8   8  -2 26229.6 874.123  13
  -8   8  -2 26049.8 1543.12   1
  -8  -8  -3 3740.70 366.996  14
  -8  -8  -3 3798.40 289.270   6
  -8  -8  -4 125969. 1922.01  14
  -8  -8  -4 125202. 1629.94   6
   8  -8   5 18720.6 688.759  20
  -8  -8  -5 18520.1 637.299   6
  -8  -8  -5 18575.0 649.893   7
  -8  -8  -5 18444.9 696.724  14
  -8   8  -5 19104.5 878.107  15
   8  -8   6 3624.76 297.201  20
  -8   8  -6 3863.75 370.357  15
  -8  -8  -6 3543.66 292.961  14
  -8  -8  -6 3722.75 296.142   6
  -8  -8  -6 3604.21 300.529   7
  -8   8  -6 4097.49 455.883  12
  -8   8  -7 20731.6 917.003  12
  -8  -8  -7 20366.2 642.662  14
  -8   8  -7 20872.2 777.844  15
  -8   8  -7 18873.6 717.762   9
  -8  -8  -7 20858.3 683.014   6
  -8  -8  -7 20613.2 673.171   7
  -8   8  -8 60916.4 1223.17  15
  -8   8  -8 64322.2 1478.91  12
  -8  -8  -8 62915.9 1150.17   7
  -8  -8  -8 64136.2 1188.09   6
  -8   8  -9 10288.1 463.885  15
  -8   8  -9 9926.19 476.527   9
  -8   8  -9 10664.6 565.568  12
  -8  -8  -9 10791.5 469.214   7
  -8  -8  -9 10468.7 481.191   6
  -8   8 -10 46275.0 885.758  15
  -8   8 -10 47218.2 1007.85   9
  -8   8 -10 50788.5 1109.24  12
  -8  -8 -10 48614.8 1006.42   6
  -8  -8 -10 49083.6 956.617   7
  -8  -8 -11 857.342 151.261   6
  -8   8 -11 787.004 152.736  12
  -8  -8 -11 513.215 119.543   7
  -8   8 -11 679.368 112.308  15
  -8   8 -12 7643.98 360.106  12
  -8  -8 -12 7957.35 406.314   6
  -8  -8 -12 7766.14 350.858   7
  -8   8 -13 8795.13 329.441  12
  -8  -8 -13 8596.88 390.332   6
   8   9 -13 36198.1 495.891  13
   8  -9 -13 38548.5 557.097   6
   8   9 -12 4290.58 201.180  13
  -8   9  12 4122.76 219.022  13
  -8   9  12 4110.39 191.203   5
   8   9 -11 206.705 67.5855  13
  -8   9  11 224.459 83.9032  13
  -8   9  11 221.595 67.7927   5
  -8   9  10 2649.07 253.480  13
   8   9 -10 2497.85 190.591  13
  -8   9  10 2373.26 188.912   5
  -8   9   9 28030.6 883.814  13
   8   9  -9 28381.4 657.719  13
  -8   9   9 27174.6 666.383   5
   8   9  -8 915.614 144.289  13
  -8   9   8 1152.04 243.287  13
  -8   9   8 840.078 140.131   5
  -8   9   7 102249. 2100.10  13
   8   9  -7 106714. 1404.77  13
  -8   9   7 106907. 1495.73   5
  -8   9   6 29735.0 1293.35  13
   8   9  -6 29396.3 764.902  13
  -8   9   6 30876.2 848.741   5
   8   9  -5 366.582 107.438  13
  -8   9   5 366.968 122.851   5
  -8   9   4 18058.3 1326.91  13
   8   9  -4 17472.1 604.690  13
  -8   9   4 18438.8 728.465   5
  -8   9   3 56953.5 2049.95  13
  -8   9   3 53157.6 1280.54   5
  -8   9   2 145.316 192.555  13
  -8   9   2-311.712 142.241   5
  -8   9   1 45388.5 1478.89  13
  -8   9   1 40184.3 1210.70   5
  -8  -9   0 211.408 174.719  14
  -8   9   0 694.384 194.070  13
  -8  -9   0 323.552 98.2939   6
  -8   9   0 338.756 143.616   5
  -8   9  -1 3713.07 374.764  13
  -8  -9  -1 3939.63 439.533  14
  -8  -9  -1 3688.27 283.981   6
  -8   9  -1 3694.52 402.801   5
  -8   9  -2 27993.6 935.828  13
  -8  -9  -2 28812.9 1042.24  14
  -8  -9  -2 29063.3 772.198   6
  -8   9  -2 26941.1 1060.67   5
  -8   9  -3 71800.7 1417.25  13
  -8  -9  -3 72343.6 1217.52   6
   8  -9   4 1911.89 247.801  20
  -8  -9  -4 1671.12 229.212  14
  -8  -9  -4 1863.62 211.824   6
   8  -9   5 54231.7 1171.14  20
  -8  -9  -5 52664.8 1051.15   6
  -8  -9  -5 53141.6 1099.97  14
  -8   9  -5 54173.1 1420.93  15
   8  -9   6 28850.6 803.780  20
  -8  -9  -6 30481.8 806.036   6
  -8   9  -6 29769.9 959.817  15
  -8   9  -6 29841.8 1144.10  12
  -8   9  -7 5459.94 463.596  12
  -8  -9  -7 5439.62 346.670   6
  -8  -9  -7 5511.39 357.096   7
  -8   9  -7 4955.94 368.997  15
   8  -9   7 5122.11 320.813  20
  -8   9  -7 5140.66 376.876   9
  -8   9  -8 3145.92 267.584  15
  -8   9  -8 2973.88 278.675   9
  -8  -9  -8 3120.44 262.984   6
  -8  -9  -8 3060.91 264.934   7
  -8   9  -8 2935.49 318.132  12
  -8   9  -9 44169.6 866.381  15
  -8   9  -9 44023.0 963.900   9
  -8  -9  -9 46270.3 950.934   6
  -8  -9  -9 45221.6 929.440   7
  -8   9 -10 1311.22 142.223  15
  -8   9 -10 1005.29 159.072  12
  -8  -9 -10 1316.22 176.081   6
  -8  -9 -10 1294.55 168.130   7
  -8   9 -10 1225.27 169.355   9
  -8  -9 -11 17241.7 563.257   6
  -8   9 -11 18289.2 549.682  12
  -8  -9 -12 5704.28 320.194   6
  -8   9 -12 5677.73 268.480  12
   8  10 -12 12706.9 289.991  13
   8  10 -11 8498.73 275.894  13
  -8  10  11 8928.08 325.613  13
  -8  10  11 8591.16 273.482   5
   8  10 -10 4450.83 222.804  13
  -8  10  10 4139.23 270.695  13
  -8  10  10 4365.43 225.946   5
  -8  10   9 8718.01 450.944  13
   8  10  -9 8721.43 336.486  13
  -8  10   9 8620.39 348.116   5
  -8  10   8 102749. 1728.48  13
   8  10  -8 100240. 1198.80  13
  -8  10   8 99712.6 1268.40   5
  -8  10   7 1423.45 256.444  13
   8  10  -7 1531.80 168.766  13
  -8  10   7 1282.54 171.531   5
  -8  10   6 27667.8 1155.80  13
   8  10  -6 25732.8 663.921  13
  -8  10   6 25624.4 736.668   5
  -8  10   5 5546.94 616.022  13
   8  10  -5 5325.09 313.918  13
  -8  10   5 5047.02 352.866   5
  -8  10   4 23957.6 1518.54  13
  -8  10   4 21234.0 744.108   5
  -8  10   3 146.033 223.155  13
  -8  10   3-30.5099 104.982   5
  -8  10   2 66506.0 2010.80  13
  -8  10   2 59735.7 1362.05   5
  -8 -10   1 4170.51 485.902  14
  -8  10   1 4008.46 473.132  13
  -8  10   1 3338.20 345.649   5
  -8 -10   0 3378.21 425.188  14
  -8  10   0 4165.03 387.005   5
  -8  10  -1 31623.3 1081.99  13
  -8  10  -1 28938.6 1033.60   5
  -8 -10  -1 30293.5 1104.74  14
  -8 -10  -1 32766.3 816.825   6
  -8  10  -2 22862.5 863.674  13
   8 -10   2 21857.9 868.506  20
  -8 -10  -2 23865.1 884.544  14
  -8 -10  -2 22610.7 670.120   6
  -8  10  -3 4593.94 425.268   5
   8 -10   3 5462.52 420.524  20
  -8 -10  -3 5585.37 338.158   6
  -8  10  -3 5418.55 403.696  13
  -8 -10  -4 65934.3 1136.10   6
  -8  10  -4 64697.2 1634.14  15
   8 -10   4 64670.1 1341.76  20
  -8 -10  -5 12400.7 496.669   6
  -8  10  -5 10947.7 608.213   5
  -8  10  -5 12415.7 652.410  15
   8 -10   5 11394.3 538.281  20
  -8  10  -6 4994.95 379.062  15
   8 -10   6 4829.08 329.655  20
  -8  10  -6 4830.30 445.856  12
  -8 -10  -6 4729.61 312.520   6
  -8  10  -7 11557.8 527.847   9
  -8  10  -7 11683.3 504.975  15
   8 -10   7 11058.8 446.618  20
  -8  10  -7 11372.9 612.661  12
  -8 -10  -7 11622.1 472.091   6
  -8  10  -8 26744.3 673.400  15
  -8 -10  -8 25562.4 683.643   6
  -8  10  -8 27782.7 847.554  12
  -8  10  -8 25911.1 750.723   9
  -8  10  -9 1321.23 140.305  15
  -8  10  -9 1298.06 174.747   9
  -8 -10  -9 1577.85 181.172   6
  -8  10  -9 1443.25 194.387  12
  -8  10 -10 43787.0 874.706   9
  -8 -10 -10 44778.0 856.690   6
  -8  10 -11 370.261 90.2263  12
  -8 -10 -11 420.046 98.3304   6
   8  11 -11 101.111 39.3597  13
   8 -11 -11 87.7924 49.9474   6
  -8  11  10 1310.85 110.727   5
  -8  11  10 1220.32 128.015  13
   8  11 -10 1276.01 107.618  13
  -8  11   9 46594.3 700.258   5
  -8  11   9 47675.9 879.967  13
   8  11  -9 48303.6 675.726  13
  -8  11   8 264.161 80.6770   5
  -8  11   8 155.753 102.524  13
   8  11  -8 237.858 67.4409  13
  -8  11   7 24347.9 610.579   5
   8 -11  -7 24704.2 608.282  20
  -8  11   7 25985.2 867.083  13
   8  11  -7 25053.5 558.208  13
  -8  11   6 37971.2 820.561   5
   8 -11  -6 39113.0 930.785  20
  -8  11   6 40181.0 1224.81  13
   8  11  -6 39097.6 725.749  13
  -8  11   5 21.8078 106.140   5
   8 -11  -5 168.223 132.887  20
  -8  11   5 172.852 199.341  13
   8  11  -5 197.209 68.7494  13
  -8  11   4 24849.1 1306.22  13
  -8  11   4 24301.7 737.471   5
  -8  11   3 40412.0 993.492   5
  -8  11   3 43655.7 1810.69  13
  -8 -11   3 41170.4 1117.98  14
  -8  11   2 11899.4 567.131   5
  -8 -11   2 11294.4 659.957  14
  -8  11   2 12310.9 888.194  13
  -8  11   1 53404.7 1225.75   5
   8 -11  -1 57921.5 1711.19  20
  -8 -11   1 54787.3 1635.58  14
  -8  11   1 60370.4 1766.01  13
  -8  11   0 15323.4 679.371   5
   8 -11   0 16227.4 854.106  20
  -8 -11   0 15315.8 783.540  14
  -8  11   0 16483.7 860.519  13
  -8  11  -1 11785.1 603.591   5
   8 -11   1 12497.5 704.128  20
  -8  11  -1 11580.1 666.286  13
  -8  11  -2 9758.92 549.368   5
   8 -11   2 11396.6 628.267  20
  -8 -11  -2 10702.1 448.244   6
  -8  11  -2 10638.3 602.363  13
   8 -11   3 59967.5 1336.58  20
  -8 -11  -3 58921.9 1035.03   6
  -8  11  -3 59145.1 1312.60  13
   8 -11   4 97.2303 119.638  20
  -8 -11  -4-32.3279 70.9581   6
  -8  11  -4 16.4899 117.198   5
  -8  11  -4 51.0031 137.794  15
  -8  11  -4-16.8228 102.108  13
  -8  11  -5 23420.2 970.496  12
   8 -11   5 24976.7 757.987  20
  -8  11  -5 22674.1 762.759   5
  -8 -11  -5 23526.5 639.035   6
  -8  11  -5 24122.1 816.527  15
  -8 -11  -6 13061.7 474.543   6
  -8  11  -6 13234.0 665.990  12
  -8  11  -6 13870.1 550.671  15
  -8  11  -6 12666.8 533.419   5
  -8  11  -6 14463.6 597.123   9
   8 -11   6 14087.9 528.728  20
  -8  11  -7 356.502 154.845  12
   8 -11   7 44.1302 78.3699  20
  -8 -11  -7 321.558 95.8327   6
  -8  11  -7 149.009 88.7874  15
  -8  11  -7 91.0287 118.557   9
  -8  11  -8 2483.98 229.513   9
  -8 -11  -8 2573.85 208.718   6
  -8  11  -8 2736.90 256.695  12
  -8  11  -9 52697.5 948.908   9
  -8  11  -9 54403.6 921.105  12
  -8 -11  -9 51314.6 865.434   6
  -8  11 -10 419.013 92.5319  12
  -8 -11 -10 656.214 113.998   6
   8 -12  -9 742.313 98.6231   6
  -8  12   9 650.592 73.7072   5
  -8  12   9 835.892 101.641  13
   8  12  -9 720.811 72.6347  13
  -8 -12   9 740.473 87.9536  14
  -8  12   8 23106.0 457.007   5
  -8  12   8 23988.1 592.290  13
   8  12  -8 23686.3 418.657  13
  -8  12   7 6025.59 262.915   5
  -8  12   7 5963.42 347.119  13
   8  12  -7 6222.13 232.131  13
  -8  12   6 7029.88 309.785   5
   8 -12  -6 6942.35 306.667  20
  -8 -12   6 6714.37 318.613  14
  -8  12   6 6860.73 429.180  13
   8  12  -6 6647.76 249.479  13
  -8  12   5 10983.1 413.406   5
   8 -12  -5 11478.9 479.235  20
  -8 -12   5 11692.9 456.281  14
  -8  12   5 11492.0 626.760  13
  -8  12   4 5290.19 309.810   5
   8 -12  -4 5449.61 392.477  20
  -8 -12   4 5567.24 346.231  14
  -8  12   4 5082.65 494.286  13
  -8  12   3 3013.35 248.591   5
   8 -12  -3 3031.08 357.773  20
  -8 -12   3 2604.84 263.317  14
  -8  12   3 2644.62 420.464  13
  -8  12   2 61860.4 1126.72   5
   8 -12  -2 58097.0 1704.57  20
  -8 -12   2 59709.6 1356.83  14
  -8  12   2 64040.6 1955.33  13
  -8  12   1 13799.6 553.577   5
   8 -12  -1 14014.2 835.074  20
  -8  12   1 15180.7 885.460  13
  -8  12   0 3061.04 271.562   5
   8 -12   0 3082.86 381.063  20
  -8  12   0 3083.02 377.734  13
   8 -12   1 46855.3 1313.80  20
  -8  12  -1 46865.8 1323.42  13
   8 -12   2 33514.7 1036.67  20
  -8  12  -2 31747.5 1016.37  13
  -8  12  -3 3872.98 338.283  13
   8 -12   3 4255.39 357.891  20
  -8  12  -3 3769.65 287.856   5
  -8  12  -3 3653.19 370.233  15
  -8 -12  -3 3500.87 244.400   6
  -8  12  -4 28032.4 827.242  13
  -8  12  -4 27961.3 1052.64  12
   8 -12   4 29529.4 851.291  20
  -8  12  -4 27231.5 741.173   5
  -8  12  -4 29495.7 898.721  15
  -8 -12  -4 28943.7 670.167   6
  -8 -12  -5 949.227 132.110   6
  -8  12  -5 893.223 215.561  12
   8 -12   5 1064.60 162.866  20
  -8  12  -5 870.014 136.986   5
  -8  12  -5 748.133 173.408   9
  -8  12  -5 921.131 160.288  15
  -8  12  -6 7644.32 419.571   9
  -8  12  -6 8446.94 351.636  15
  -8  12  -6 7974.60 466.998  12
   8 -12   6 8043.78 378.373  20
  -8 -12  -6 8074.72 341.240   6
  -8  12  -7 20015.3 631.217  12
   8 -12   7 19381.1 518.060  20
  -8 -12  -7 19226.6 507.263   6
  -8  12  -7 18753.8 610.012   9
  -8 -12  -8 27687.2 587.529   6
  -8  12  -8 27815.7 680.362   9
  -8 -12  -9 2950.42 187.385   6
  -8  13   7 29067.1 436.233   5
  -8  13   7 29742.6 572.826  13
  -8  13   6 6872.50 243.529   5
  -8  13   6 7584.07 343.649  13
   8 -13  -5 386.148 72.6571  20
  -8  13   5 417.943 77.9011   5
  -8  13   5 527.168 127.363  13
   8 -13  -4 22549.5 588.161  20
  -8  13   4 21584.3 505.077   5
  -8  13   4 21601.0 745.164  13
   8 -13  -3 41954.3 944.689  20
  -8  13   3 40237.4 726.948   5
  -8  13   3 43610.3 1180.29  13
   8 -13  -2 6033.81 417.988  20
  -8  13   2 5894.77 294.526   5
  -8  13   2 6046.60 498.964  13
   8 -13  -1 13165.7 702.486  20
  -8  13   1 13621.4 455.780   5
   8 -13   0 24872.5 989.539  20
  -8  13   0 25538.3 630.411   5
  -8  13   0 26062.6 1030.53  13
   8 -13   1 84.8222 144.379  20
  -8  13  -1 182.597 83.8727   5
  -8  13  -1 13.6583 149.643  13
  -8  13  -2 8329.00 502.894  13
  -8  13  -2 8247.09 354.806   5
  -8  13  -2 7613.92 505.281  15
   8 -13   2 9097.26 524.334  20
  -8  13  -3 24893.9 788.455  13
  -8  13  -3 24023.0 579.236   5
   8 -13   3 25711.0 809.235  20
  -8  13  -3 24160.4 765.068  15
  -8  13  -4-35.3292 146.305  12
  -8  13  -4 17.9519 147.371   9
  -8  13  -4 102.945 58.5486   5
   8 -13   4 133.114 103.001  20
  -8  13  -4 235.531 95.3248  15
   8 -13   5 19156.0 592.741  20
  -8  13  -5 18274.4 655.560  12
  -8  13  -5 18526.0 651.019   9
   8 -13   6 5162.20 278.830  20
  -8  13  -6 5276.21 319.948   9
  -8  13  -6 5035.92 303.572  12
  -8  13  -7 3484.78 241.194   9
  -8  14   5 3613.40 186.031  13
  -8  14   4 13296.2 404.492  13
   8 -14  -3 5922.38 234.555  20
  -8  14   3 5807.70 206.487   5
  -8  14   3 5855.07 301.922  13
  -8  14   2 24500.8 442.965   5
  -8  14   2 25552.0 667.455  13
   8 -14  -1 8185.07 373.586  20
  -8  14   1 7504.10 254.761   5
  -8  14   1 7658.86 386.933  13
  -8  14   0 4683.20 204.028   5
  -8  14   0 5118.87 322.687  13
   8 -14   0 4983.87 324.829  20
  -8  14   0 4612.99 259.863  15
  -8  14  -1 33691.6 768.934  13
  -8  14  -1 31508.5 512.420   5
  -8  14  -1 32623.1 991.677   9
   8 -14   1 33469.0 898.793  20
  -8  14  -2 6720.76 321.593  12
  -8  14  -2 7182.19 461.366   9
  -8  14  -2 7468.11 320.575  13
   8 -14   2 7497.84 439.195  20
   8 -14   3 643.295 138.188  20
  -8  14  -3 706.502 126.169  12
  -8  14  -3 568.204 159.846   9
   8 -14   4 30502.1 727.570  20
  -8  14  -4 29553.8 750.248   9
  -9   0  16 13.3701 33.5702   8
   9   0 -16-53.7721 48.0409  10
  -9   0  15 3197.14 179.911   8
   9   0 -15 3292.39 198.514  10
   9   0 -14-132.001 98.8403   9
   9   0 -14-8.75352 75.2392  13
   9   0 -14 49.9093 71.2412  10
  -9   0  14-0.10667 65.8712   8
   9   0 -13 27538.4 700.430  10
   9   0 -13 27912.6 660.541   9
   9   0 -13 26885.0 668.119  13
   9   0 -12-77.4343 110.969  13
   9   0 -12-22.9951 111.126   9
   9   0 -11 138719. 1645.73   9
   9   0 -11 143209. 1693.42  13
   9   0 -10-83.3254 107.166  13
   9   0 -10 71.0807 94.9162   9
   9   0  -9 35999.2 855.294   9
   9   0  -9 32523.8 828.377  13
   9   0  -8-7.43458 78.5308  13
   9   0  -8 139.060 91.9371   9
   9   0  -7 35084.7 848.788  13
   9   0  -7 35778.2 1672.96  18
   9   0  -7 37509.7 879.354   9
   9   0  -6 35.6818 106.844   9
   9   0  -6 67.5189 142.671  18
  -9   0   6 63.3594 79.8217   8
   9   0  -6 79.8793 96.1860  13
  -9   0   5 101915. 1640.87   8
   9   0  -5 106462. 2565.38   3
   9   0  -5 105413. 1458.23  13
  -9   0   4 20.6961 78.1681   8
   9   0  -4-66.3098 212.731   3
   9   0  -4 115.412 130.716  18
   9   0  -3 725.205 227.599   3
  -9   0   3 1083.64 300.311   1
   9   0  -3 486.993 188.968  18
   9   0  -2-349.958 176.704   3
  -9   0   2-86.3624 210.012   1
   9   0  -2 106.501 111.756  18
   9   0  -1 150626. 3250.99   3
  -9   0   1 147894. 3389.95   1
   9   0   0-7.64515 235.847   3
  -9   0   0 114.018 188.309   1
   9   0   1 370201. 5643.95   3
  -9   0  -1 379919. 4455.10   4
  -9   0  -2 2.58830 145.873   4
  -9   0  -2 71.0215 187.138   1
  -9   0  -3 6916.44 847.622   1
  -9   0  -3 7792.48 525.423   6
  -9   0  -3 6902.56 461.909  11
   9   0   3 6879.23 970.538   3
  -9   0  -3 6286.00 679.982   4
  -9   0  -3 7017.44 471.120   8
  -9   0  -4 99.2890 155.472  15
  -9   0  -4 22.4714 123.780  14
  -9   0  -4 155.958 113.646  11
  -9   0  -4 136.801 233.287   4
   9   0   4 13.9202 204.251   3
  -9   0  -4 38.5971 183.018   1
  -9   0  -4 105.879 116.144   6
  -9   0  -4 337.196 139.190   8
  -9   0  -5 171681. 2213.46   8
  -9   0  -5 160960. 2625.97  15
  -9   0  -5 177281. 2401.85  14
  -9   0  -5 171101. 2387.52   6
  -9   0  -5 173634. 2205.69  11
   9   0   5 184369. 4936.63   3
  -9   0  -5 175480. 4173.28   4
  -9   0  -5 168605. 4189.20   1
  -9   0  -6-50.3584 191.172  15
  -9   0  -6 63.2569 97.5671  14
  -9   0  -6-64.8768 122.361  11
  -9   0  -6 7.17550 102.903   6
  -9   0  -6-46.4053 116.509  12
  -9   0  -6 334.698 270.888   1
  -9   0  -6 45.1786 100.850   8
  -9   0  -6-5.01143 241.067   4
  -9   0  -7 121193. 1899.86  14
  -9   0  -7 116245. 2059.95   6
  -9   0  -7 116202. 2085.46  12
  -9   0  -7 113680. 1784.32  11
  -9   0  -7 116497. 1810.24   8
  -9   0  -7 115425. 1590.26  10
  -9   0  -7 118663. 2141.12  15
  -9   0  -8-13.0812 101.481  11
  -9   0  -8-22.1876 100.506  10
  -9   0  -8 6.04700 92.3260   8
  -9   0  -8 85.8345 163.588  12
  -9   0  -8-14.9631 118.380  14
  -9   0  -8 41.5666 129.600  15
  -9   0  -9 2038.16 251.439  11
  -9   0  -9 1922.67 313.963  12
  -9   0  -9 1854.51 280.177  15
  -9   0  -9 1885.55 249.903  14
  -9   0  -9 1783.13 211.277  10
  -9   0 -10 25.1780 93.2859  11
  -9   0 -10-48.4238 183.087  12
  -9   0 -10-36.0253 111.730  14
  -9   0 -10-116.418 172.966  15
  -9   0 -10 46.7710 77.1374  10
  -9   0 -11 14058.0 583.832  11
  -9   0 -11 13412.3 752.606  12
  -9   0 -11 14035.3 652.642  15
  -9   0 -11 14319.0 591.224  14
  -9   0 -11 13178.2 547.998  10
  -9   0 -12-138.609 250.168  12
  -9   0 -12 81.2561 93.7829  11
  -9   0 -12-164.997 147.143  15
  -9   0 -12 61.6718 95.7271  10
  -9   0 -13 65267.2 1214.21  15
  -9   0 -13 64977.1 1457.98  12
  -9   0 -14 1289.28 215.143  15
  -9   0 -14-44.0938 170.905  12
  -9   0 -15 1703.89 258.086  12
  -9  -1  16 43107.6 526.822   8
   9  -1 -16 42604.4 556.242  10
  -9  -1  15 3029.96 178.350   8
  -9   1  15 2890.73 163.436   8
   9   1 -15 2881.12 175.763  13
   9   1 -15 2785.84 146.861   7
   9   1 -15 2769.28 177.428  10
   9  -1 -15 3046.94 192.643  10
   9   1 -14 2697.50 196.721  13
   9   1 -14 2534.63 195.066  10
   9  -1 -14 2484.37 196.389  10
   9   1 -14 2423.78 183.225   9
  -9   1  14 2431.63 177.582   8
   9   1 -13 1395.16 158.299  13
   9  -1 -13 1396.52 165.642  13
   9   1 -13 1531.72 166.110   9
   9  -1 -13 1318.73 160.589   9
   9   1 -13 1548.51 173.918  10
   9  -1 -13 1615.52 185.142  10
   9   1 -12 62469.7 1063.25  13
   9  -1 -12 61421.2 1086.83  13
   9   1 -12 61877.1 1020.81   9
   9  -1 -12 62498.0 1066.62   9
   9  -1 -11 290.915 106.289   9
   9   1 -11 206.867 94.8405   9
   9  -1 -11 159.271 93.2571  13
   9   1 -11 227.279 94.5875  13
   9  -1 -10 69866.9 1234.02  13
   9   1 -10 71718.9 1205.55  13
   9  -1 -10 71019.8 1229.60   9
   9   1 -10 70086.3 1165.85   9
   9  -1  -9 754.662 146.375   9
   9   1  -9 641.918 132.165   9
   9  -1  -9 791.550 146.616  13
   9   1  -9 839.060 146.586  13
   9  -1  -8 2874.37 261.050  13
   9   1  -8 3349.70 267.064  13
   9  -1  -8 2693.58 253.746   9
   9   1  -8 2802.81 244.480   9
   9   1  -8 2198.45 440.337  18
   9   1  -7 13433.9 883.364   3
   9   1  -7 13924.6 525.221   9
   9  -1  -7 14189.4 563.819   9
   9  -1  -7 13693.3 554.745  13
   9   1  -7 14160.6 529.777  13
   9   1  -7 12615.5 990.005  18
   9   1  -6 210266. 1987.78  13
   9  -1  -6 208319. 2145.94  13
   9  -1  -6 209847. 3619.44   3
   9   1  -6 216698. 3583.12   3
   9   1  -6 214874. 2045.11   9
   9  -1  -6 209740. 2208.67   9
   9   1  -6 218404. 3940.36  18
   9  -1  -6 202002. 3905.36  18
  -9   1   6 206442. 2240.21   8
  -9  -1   6 202309. 2219.72   8
   9  -1  -5 1852.30 375.378  18
   9   1  -5 1292.41 313.709  18
  -9   1   5 1690.74 229.453   8
  -9  -1   5 1571.53 216.832   8
   9   1  -5 1059.54 270.147   3
   9  -1  -5 1249.20 293.034   3
   9   1  -5 1561.28 181.836  13
   9  -1  -5 1481.23 190.105  13
  -9   1   4 139651. 2045.80   8
  -9  -1   4 137167. 2011.83   8
   9   1  -4 140669. 3004.87  18
   9  -1  -4 138132. 2976.14  18
   9  -1  -4 138693. 3029.60   3
   9   1  -4 131110. 2847.31   3
  -9   1   4 145571. 3154.63   1
   9   1  -3 145.781 113.449  18
   9  -1  -3 401.661 216.153  18
   9   1  -3 430.654 183.911   3
   9  -1  -3 123.458 146.136   3
  -9   1   3 275.738 171.457   1
   9   1  -2 2797.73 421.485  18
   9   1  -2 3473.30 485.885   3
   9  -1  -2 3308.24 495.685   3
  -9   1   2 3000.59 501.991   1
   9   1  -1 1573.42 300.518  18
   9   1  -1 1371.41 321.385   3
   9  -1  -1 1562.36 346.494   3
  -9  -1   1 1539.63 344.961   1
  -9   1   1 1629.14 415.556   1
   9  -1   0 145168. 3523.31   3
   9   1   0 139529. 3137.99   3
  -9   1   0 141078. 3736.35   1
  -9  -1   0 143791. 3292.30   1
   9  -1   1 8179.97 886.045   3
   9   1   1 8525.96 810.007   3
  -9   1  -1 9833.29 744.686   4
  -9   1  -1 7682.92 936.575   1
  -9  -1  -1 8413.96 818.306   1
   9  -1   2 116419. 3783.13   3
  -9  -1  -2 123368. 2742.03   4
   9   1   2 119303. 3265.62   3
  -9   1  -2 116780. 2771.19   4
  -9   1  -2 121609. 3835.58   1
  -9  -1  -2 119361. 3109.45   1
  -9  -1  -3 7314.34 465.362   6
  -9   1  -3 7744.94 491.361  11
  -9  -1  -3 7251.03 472.632  11
  -9  -1  -3 6919.56 534.085  14
   9  -1   3 7526.20 1207.84   3
   9   1   3 7829.09 925.063   3
  -9  -1  -3 6789.54 702.222   4
  -9   1  -3 6825.85 722.687   4
  -9   1  -3 7210.38 474.748   8
  -9  -1  -3 7341.32 487.643   8
  -9   1  -3 6385.80 933.285   1
  -9  -1  -3 7464.46 804.716   1
  -9   1  -4 26536.5 878.183   8
  -9  -1  -4 26731.3 889.919   8
  -9   1  -4 25218.3 1082.34  15
  -9  -1  -4 26896.9 1087.36  15
  -9  -1  -4 27711.7 1004.04  14
  -9   1  -4 26975.1 979.077  14
  -9   1  -4 26246.4 1062.25   6
  -9  -1  -4 26932.8 876.800   6
  -9   1  -4 26555.7 880.548  11
  -9  -1  -4 26592.7 883.186  11
   9  -1   4 29178.0 2121.97   3
   9   1   4 27603.4 2120.86   3
  -9  -1  -4 25782.0 1463.04   4
  -9   1  -4 25104.4 1493.02   4
  -9   1  -4 25269.1 1857.78   1
  -9  -1  -4 25302.7 1499.91   1
  -9   1  -5 99.4214 121.159  14
  -9  -1  -5 234.396 128.388  14
  -9  -1  -5 172.145 135.914  15
  -9   1  -5 117.493 138.549  15
  -9  -1  -5 53.4669 117.044  11
  -9   1  -5-12.9324 122.116  11
  -9   1  -5 12.8582 128.805  12
  -9  -1  -5 545.258 264.073   4
  -9   1  -5-319.397 231.437   4
   9  -1   5-147.256 175.357   3
   9   1   5-235.248 219.128   3
  -9  -1  -5 400.011 306.933   1
  -9   1  -5 104.723 262.903   1
  -9   1  -5 82.1322 130.376   6
  -9  -1  -5 268.337 114.267   6
  -9  -1  -5 72.0145 92.6441   8
  -9   1  -5 95.2030 90.5298   8
  -9   1  -6 132877. 1935.98   8
  -9  -1  -6 136045. 1975.87   8
  -9   1  -6 127553. 2294.80  15
  -9  -1  -6 128110. 2294.07  15
  -9   1  -6 134632. 2057.29  14
  -9  -1  -6 133018. 2026.73  14
  -9   1  -6 127625. 2359.04   6
  -9  -1  -6 132367. 1964.69   6
  -9   1  -6 131899. 2224.35  12
  -9   1  -6 133831. 1926.68  11
  -9  -1  -6 134053. 1932.97  11
  -9  -1  -6 133466. 3957.69   4
  -9   1  -6 134460. 4072.45   4
  -9   1  -6 130338. 4183.93   1
  -9  -1  -7 1209.84 208.232   8
  -9   1  -7 1185.24 201.823   8
  -9  -1  -7 1305.22 219.827  12
  -9   1  -7 1425.78 296.245  12
  -9  -1  -7 1214.48 196.689  11
  -9   1  -7 1253.81 200.441  11
  -9  -1  -7 1172.01 179.539  10
  -9  -1  -7 1199.49 210.613   6
  -9  -1  -7 1175.01 246.542  15
  -9   1  -7 1075.08 226.802  15
  -9  -1  -7 1913.42 252.139  14
  -9   1  -7 1066.96 196.658  14
  -9  -1  -7 1212.87 407.166   4
  -9   1  -7 1530.91 520.667   4
  -9   1  -8 19963.5 770.508  14
  -9  -1  -8 19426.7 747.873  14
  -9  -1  -8 20479.5 824.019   6
  -9  -1  -8 19885.9 871.422  12
  -9   1  -8 19078.5 934.423  12
  -9   1  -8 19764.5 739.137  11
  -9  -1  -8 19740.7 741.714  11
  -9   1  -8 19965.5 675.143  10
  -9  -1  -8 19854.7 677.344  10
  -9  -1  -8 20607.5 761.649   8
  -9  -1  -8 21043.6 898.820  15
  -9   1  -8 19771.9 849.453  15
  -9  -1  -9 439.004 140.401   6
  -9   1  -9 526.053 134.272  10
  -9  -1  -9 482.579 140.863  10
  -9   1  -9 504.712 140.982  11
  -9  -1  -9 528.671 133.673  11
  -9  -1  -9 514.308 214.120  12
  -9   1  -9 395.057 186.525  12
  -9   1  -9 371.088 121.662  14
  -9  -1  -9 414.715 132.996  14
  -9   1  -9 559.789 187.091  15
  -9  -1  -9 495.775 176.317  15
  -9   1 -10 15035.1 590.864  10
  -9  -1 -10 14824.6 588.395  10
  -9   1 -10 14705.5 792.763  12
  -9   1 -10 14955.1 624.680  11
  -9  -1 -10 15170.9 626.206  11
  -9  -1 -10 14342.2 825.113  12
  -9   1 -10 15409.6 698.656  15
  -9  -1 -10 15963.9 747.139  15
  -9  -1 -10 14765.5 620.041  14
  -9   1 -10 14754.8 637.646  14
  -9   1 -11 107.147 86.6954  10
  -9  -1 -11 11.5386 82.8531  10
  -9   1 -11-58.1649 108.114  11
  -9  -1 -11 5.34704 97.6358  11
  -9  -1 -11-164.418 262.599  12
  -9   1 -11 148.499 161.598  12
  -9   1 -11 25.4263 86.3566  14
  -9  -1 -11 72.0941 90.5259  14
  -9  -1 -11 95.3360 124.702  15
  -9   1 -11-8.07933 140.017  15
  -9  -1 -12 90177.8 1588.65  15
  -9   1 -12 90917.0 1513.81  15
  -9  -1 -12 89135.0 1362.96  10
  -9   1 -12 87525.1 1367.96  11
  -9  -1 -12 89616.8 1386.94  11
  -9  -1 -12 88353.2 1854.40  12
  -9   1 -12 92748.1 1826.58  12
  -9  -1 -13 443.901 169.200  15
  -9   1 -13 31.4455 110.352  15
  -9  -1 -13-115.851 221.559  12
  -9   1 -13-147.176 218.172  12
  -9  -1 -14 30302.1 914.716  12
  -9   1 -14 30503.3 883.656  12
  -9   1 -14 31364.2 731.407  15
  -9   1 -15 1929.73 227.833  12
  -9  -1 -15 5420.83 349.834  12
   9  -2 -16 2038.11 121.250  10
  -9  -2  16 2165.08 121.406   8
   9   2 -15 18385.1 414.447  10
   9  -2 -15 19152.3 457.981  10
   9   2 -15 18728.8 411.822   9
   9   2 -15 18922.5 426.587  13
   9   2 -15 18273.1 382.226   7
  -9  -2  15 19239.7 437.460   8
  -9   2  15 18200.0 360.009   8
   9   2 -14 607.820 103.015  10
   9  -2 -14 598.013 110.542  10
  -9   2  14 447.138 80.7799   8
  -9  -2  14 593.809 104.747   8
   9   2 -14 681.944 107.159  13
   9   2 -14 619.445 99.2997   9
   9   2 -13 36674.1 721.189   9
   9   2 -13 38301.2 790.878  10
   9  -2 -13 39015.8 825.989  10
  -9   2  13 36990.4 712.441   8
   9   2 -13 37147.9 754.949  13
   9   2 -12 868.082 136.085  13
   9  -2 -12 699.880 132.687  13
   9   2 -12 932.905 142.943   9
   9   2 -11 97752.7 1297.86   9
   9  -2 -11 96406.3 1424.62   9
   9   2 -11 97704.2 1347.40  13
   9  -2 -10-16.4690 100.044  13
   9   2 -10 13.8310 92.0360  13
   9  -2 -10-22.3989 108.185   9
   9   2 -10 10.2803 98.5211   9
   9  -2  -9 39881.9 970.425  13
   9   2  -9 40344.1 891.653  13
   9   2  -9 40408.0 859.699   9
   9  -2  -9 40918.4 966.629   9
   9   2  -8 17084.8 1185.44  18
   9  -2  -8 18320.2 665.690  13
   9   2  -8 17189.4 579.850  13
  -9   2   8 16899.2 611.139   8
   9   2  -8 17569.3 567.811   9
   9  -2  -8 17826.2 647.860   9
  -9   2   7 36459.0 914.936   8
   9   2  -7 36061.5 1672.74  18
   9   2  -7 38087.0 833.297   9
   9   2  -7 35510.1 1443.41   3
   9  -2  -7 38316.8 961.823  13
   9   2  -7 37078.5 836.046  13
   9   2  -6 311.240 169.888  18
   9  -2  -6-73.3931 129.965  13
   9   2  -6 106.426 78.7861  13
  -9   2   6 164.466 107.570   8
  -9  -2   6 365.627 124.992   8
   9  -2  -6 239.750 180.992   3
   9   2  -5 111789. 2630.01   3
   9  -2  -5 116822. 2839.94   3
  -9  -2   5 119651. 1780.74   8
  -9   2   5 116700. 1775.45   8
   9  -2  -5 116174. 1740.03  13
   9   2  -5 119368. 1450.85  13
  -9   2   4 4131.59 556.497   1
   9   2  -4 3974.47 506.380   3
   9  -2  -4 3752.54 531.878   3
  -9   2   4 4040.20 371.442   8
  -9  -2   4 4211.29 368.047   8
   9   2  -4 4007.50 549.714  18
   9  -2  -4 3796.44 335.443  13
  -9   2   3 1996.50 418.677   1
  -9  -2   3 865.330 192.841   8
   9  -2  -3 982.919 295.642   3
   9   2  -3 2370.67 423.421  18
   9   2  -2 4934.74 618.276  18
   9  -2  -2 5320.03 664.606   3
  -9   2   2 6008.71 742.031   1
   9   2  -1 256554. 4429.35  18
   9  -2  -1 257411. 4777.29   3
  -9   2   1 254959. 5219.43   1
  -9   2   0 56870.8 1734.47   4
   9  -2   0 53037.9 2300.45   3
  -9   2   0 56988.8 2675.66   1
   9   2   1 259927. 4406.36   3
   9  -2   1 257550. 5554.84   3
  -9   2  -1 269762. 6150.04   1
  -9  -2  -2 38.2036 170.102  14
  -9  -2  -2 144.891 109.730   8
  -9  -2  -2 171.128 109.450   6
  -9  -2  -2 42.2283 136.495   4
   9   2   2 127.756 152.135   3
  -9   2  -2 255.191 172.634   4
   9  -2   2 286.992 277.110   3
  -9  -2  -2 63.3802 114.026  11
  -9  -2  -3 26817.3 835.872   6
  -9   2  -3 26829.5 904.883  11
  -9  -2  -3 27301.4 921.932  11
  -9   2  -3 27158.3 1147.33  15
  -9  -2  -3 27386.8 1069.45  14
  -9   2  -3 28581.2 1505.23   4
   9  -2   3 28629.7 2269.10   3
  -9  -2  -3 27354.5 1401.37   4
   9   2   3 27840.9 1656.98   3
  -9   2  -3 26301.5 890.761   8
  -9  -2  -3 27846.5 937.954   8
  -9   2  -3 25910.5 1907.33   1
  -9   2  -4 2217.26 272.868   8
  -9  -2  -4 2250.76 263.978   8
  -9  -2  -4 2198.67 253.646   6
  -9   2  -4 2018.03 252.194  11
  -9  -2  -4 2388.66 276.232  11
  -9   2  -4 2047.92 269.633  12
  -9   2  -4 2157.94 333.030  15
  -9   2  -4 2700.23 335.335  14
  -9  -2  -4 2385.86 317.688  14
  -9  -2  -4 2616.01 320.071  15
   9   2   4 1163.66 437.613   3
  -9  -2  -4 2417.06 447.063   4
  -9   2  -4 2236.92 455.376   4
   9  -2   4 1683.12 504.506   3
  -9   2  -4 1609.71 531.854   1
  -9   2  -5 90327.0 1591.97   8
  -9  -2  -5 93218.2 1641.05   8
  -9  -2  -5 91557.4 1539.43   6
  -9   2  -5 92568.1 1611.60  11
  -9  -2  -5 93405.5 1629.84  11
  -9   2  -5 91579.1 1840.49  12
  -9   2  -5 95236.9 1800.05  14
  -9  -2  -5 93306.1 1758.34  14
  -9  -2  -5 87482.5 1940.24  15
  -9   2  -5 89167.3 2011.09  15
   9  -2   5 96519.8 3345.22   3
   9   2   5 98254.2 4011.06   3
  -9  -2  -5 94098.9 3034.18   4
  -9   2  -5 97544.9 3270.86   4
  -9   2  -5 90942.1 3728.53   1
  -9  -2  -6 13372.4 622.436   8
  -9   2  -6 13192.3 613.056   8
  -9   2  -6 13240.7 662.466  14
  -9  -2  -6 13399.8 647.174  14
  -9  -2  -6 13237.6 595.085   6
  -9   2  -6 13422.5 793.000  12
  -9   2  -6 12494.3 592.827  11
  -9  -2  -6 12629.0 598.858  11
  -9   2  -6 13021.0 744.632  15
  -9  -2  -6 11979.7 721.641  15
  -9  -2  -6 13200.0 1238.03   4
  -9   2  -6 12726.3 1282.94   4
  -9   2  -6 12796.0 1486.51   1
  -9  -2  -7 117775. 2202.07  15
  -9   2  -7 120435. 2147.34  15
   9  -2   7 114540. 3452.54  17
  -9   2  -7 121746. 1955.01  14
  -9  -2  -7 118704. 1871.37  14
  -9  -2  -7 118306. 1804.07   6
  -9   2  -7 110156. 2236.84  12
  -9   2  -7 120241. 1813.61  11
  -9  -2  -7 118220. 1808.74  11
  -9  -2  -7 117036. 1609.06  10
  -9  -2  -7 116095. 4022.90   4
  -9   2  -7 126079. 4413.98   4
  -9   2  -7 119099. 1821.19   8
  -9  -2  -7 118328. 1829.94   8
  -9   2  -8 195.762 102.359  11
  -9  -2  -8 93.1338 121.190  12
  -9   2  -8 270.471 166.243  12
  -9  -2  -8 214.718 93.0636  11
  -9  -2  -8 187.438 91.5102  10
  -9  -2  -8 317.157 134.556   6
  -9  -2  -8 213.693 118.105   8
  -9  -2  -8 134.064 132.140  15
  -9   2  -8 280.113 124.445  14
  -9  -2  -8 266.493 125.671  14
  -9   2  -8 122.145 142.455  15
  -9  -2  -9 8312.77 517.808   6
  -9   2  -9 7877.33 590.333  12
  -9   2  -9 8022.33 461.900  11
  -9  -2  -9 7800.85 459.969  11
  -9  -2  -9 7993.06 553.291  12
  -9  -2  -9 7748.87 429.054  10
  -9  -2  -9 7969.83 467.470  14
  -9   2  -9 7814.76 481.598  14
  -9   2  -9 7813.75 517.531  15
  -9  -2  -9 7590.81 543.299  15
  -9  -2 -10-68.3869 267.890  12
  -9   2 -10 617.799 203.910  12
  -9   2 -10 400.580 127.917  11
  -9  -2 -10 376.294 130.458  11
  -9  -2 -10 469.069 126.403  10
  -9  -2 -10 191.681 130.671   6
  -9  -2 -10 303.659 90.4229   7
  -9  -2 -10 194.046 181.337  15
  -9   2 -10 475.771 147.223  14
  -9   2 -10 528.805 167.023  15
  -9  -2 -10 393.520 121.502  14
  -9   2 -11 29399.4 822.852  11
  -9  -2 -11 30207.7 839.971  11
  -9   2 -11 30170.5 1061.34  12
  -9  -2 -11 28402.1 1135.29  12
  -9   2 -11 30263.4 906.773  15
  -9  -2 -11 30909.5 1007.29  15
  -9  -2 -11 29925.7 816.220  14
  -9  -2 -11 28598.5 791.800  10
  -9   2 -12 3202.55 265.662  11
  -9  -2 -12 3219.33 273.387  11
  -9  -2 -12 2549.71 342.751  12
  -9   2 -12 3272.69 355.831  12
  -9  -2 -12 3375.52 340.754  15
  -9   2 -12 3173.86 286.424  15
  -9  -2 -12 3158.87 261.210  14
  -9  -2 -12 3154.21 263.279  10
  -9  -2 -13 42775.7 1037.65  15
  -9   2 -13 41845.5 918.205  15
  -9  -2 -13 40771.7 1186.02  12
  -9   2 -13 41626.5 1109.25  12
  -9   2 -14 4068.31 262.371  15
  -9   2 -14 4154.52 328.002  12
  -9   2 -15 385.277 124.522  12
  -9  -3  15 2981.17 173.060   8
   9   3 -15 2920.78 164.977  13
   9   3 -15 2646.33 139.823  10
   9  -3 -15 2822.10 172.146  10
   9   3 -15 2878.28 158.114   9
   9   3 -14 549.576 93.2540   9
  -9  -3  14 674.885 106.877   8
   9   3 -14 606.045 99.8860  13
   9   3 -14 481.582 82.7741  10
   9  -3 -14 575.972 106.241  10
   9   3 -13 200.528 77.2465   9
  -9   3  13 209.490 74.9385   8
   9   3 -13 86.9933 70.6760  13
   9   3 -13 169.970 77.6989  10
   9  -3 -13 70.7555 73.9423  10
  -9   3  12 90416.1 1147.64   8
   9   3 -12 93175.6 1227.68  13
   9   3 -12 89529.0 1148.16   9
   9   3 -12 89376.7 1245.28  10
   9   3 -11 276.066 92.3046   9
   9   3 -11 218.942 93.9667  13
  -9   3  11 197.880 79.4289   8
  -9   3  10 53606.3 997.244   8
   9   3 -10 51248.0 977.559  13
   9  -3 -10 52861.5 1115.19  13
   9   3 -10 52666.8 941.507   9
  -9   3   9 4520.92 305.704   8
   9  -3  -9 5139.42 364.123  13
   9   3  -9 4641.32 302.307  13
   9   3  -9 4394.12 281.174   9
  -9   3   8 3083.95 263.136   8
   9   3  -8 3229.36 253.581  13
   9  -3  -8 3397.76 304.656  13
   9   3  -8 3202.52 237.830   9
   9   3  -7 1119.40 255.138   3
   9   3  -7 831.371 133.332  13
   9  -3  -7 1002.88 179.849  13
  -9   3   7 926.354 164.645   8
   9   3  -7 457.051 220.061  18
   9  -3  -6 128488. 1895.44  13
   9   3  -6 126321. 1504.22  13
  -9  -3   6 127445. 1808.14   8
  -9   3   6 128636. 1780.57   8
   9   3  -6 121782. 2772.35   3
   9  -3  -6 129645. 3041.47   3
   9   3  -6 120073. 3041.67  18
   9   3  -5 2586.47 461.575  18
   9   3  -5 3434.63 251.376  13
   9  -3  -5 2947.07 308.599  13
   9  -3  -5 3487.97 514.263   3
  -9  -3   5 3161.72 301.367   8
  -9   3   5 3370.00 317.664   8
  -9   3   5 2879.59 464.023   1
   9  -3  -4 173088. 3758.14   3
  -9   3   4 166616. 2344.32   8
  -9  -3   4 173690. 2336.70   8
   9   3  -4 168373. 3672.49  18
  -9   3   4 176725. 3711.95   1
   9  -3  -3 234.283 169.519   3
   9   3  -3 128.431 201.978  18
  -9  -3   3 6.94772 124.359   8
  -9   3   3 260.145 197.147   1
   9  -3  -2 97.0026 230.041   3
  -9   3   2 595.044 302.186   1
  -9  -3   2 93.1471 214.340   8
   9   3  -2 268.359 229.181  18
   9   3  -1 6789.50 881.672  18
   9  -3  -1 6673.10 849.366   3
  -9  -3   1 7101.27 677.748   8
  -9   3   1 6966.10 1010.20   1
  -9  -3   1 6931.42 493.566   6
  -9  -3   0 260288. 3539.41   8
   9   3   0 254107. 5596.54  18
  -9  -3   0 263159. 2762.93   6
  -9   3   0 254141. 5720.26   1
  -9   3   0 267148. 3933.57   4
   9  -3   0 265885. 5677.56   3
  -9  -3  -1 1208.44 295.901  14
  -9  -3  -1 1392.79 210.640   6
  -9  -3  -1 856.726 209.098   8
   9   3   1 1137.48 316.664  18
  -9  -3  -1 1129.75 221.806  11
  -9   3  -1 1138.87 411.522   1
  -9   3  -1 1540.32 325.759   4
   9  -3   1 1097.87 422.583   3
  -9  -3  -2 91089.9 1501.81   6
  -9   3  -2 93041.9 1734.67  11
  -9  -3  -2 95982.8 1777.31  11
  -9  -3  -2 90149.7 2134.11  14
  -9   3  -2 87548.3 3254.64   1
  -9  -3  -2 92013.4 1790.14   8
  -9   3  -2 85318.2 2504.73   4
   9  -3   2 95434.8 4384.09   3
  -9  -3  -3 9378.24 479.452   6
  -9  -3  -3 9213.18 397.108   7
  -9   3  -3 10400.3 564.853  12
  -9   3  -3 9969.01 551.643  11
  -9  -3  -3 9857.00 554.291  11
  -9  -3  -3 9570.50 644.688  14
  -9   3  -3 9425.82 707.495  15
  -9   3  -3 8530.71 1027.39   1
  -9   3  -3 9576.39 537.492   8
  -9  -3  -3 9754.70 569.129   8
  -9   3  -3 9186.23 875.049   4
   9   3   3 10484.4 984.360   3
   9  -3   3 9751.69 1289.61   3
  -9  -3  -3 9244.43 830.831   4
  -9  -3  -4 12452.3 551.346   6
  -9  -3  -4 11565.0 444.347   7
  -9  -3  -4 12692.7 613.703  11
  -9   3  -4 12826.2 691.400  12
  -9   3  -4 12233.9 594.233  11
  -9   3  -4 10412.9 736.107  15
  -9   3  -4 11588.3 667.690  14
  -9  -3  -4 12211.7 681.078  14
  -9   3  -4 12866.8 1292.34   1
  -9   3  -4 11482.1 576.428   8
  -9  -3  -4 12114.2 608.380   8
  -9   3  -4 11235.0 1049.01   4
   9  -3   4 12883.9 1349.46   3
  -9  -3  -4 12398.1 1040.05   4
   9   3   4 11979.8 1188.48   3
  -9   3  -5 3939.30 339.823   8
  -9  -3  -5 4046.61 350.788   8
  -9  -3  -5 3888.58 264.445   7
  -9  -3  -5 3885.96 311.598   6
  -9   3  -5 3731.94 420.172  12
  -9   3  -5 3536.47 321.707  11
  -9  -3  -5 3630.36 325.996  11
  -9   3  -5 3793.71 380.244  14
  -9  -3  -5 4181.33 386.469  14
  -9  -3  -5 3561.16 367.057  15
  -9   3  -5 3836.06 447.478  15
  -9   3  -5 3174.84 705.284   1
  -9   3  -5 3141.46 604.770   4
   9  -3   5 3465.92 629.694   3
  -9  -3  -5 4179.60 650.357   4
  -9  -3  -6 101251. 1697.19   8
  -9   3  -6 102572. 1688.32   8
  -9  -3  -6 98673.9 2086.15  15
  -9   3  -6 98394.5 2033.86  15
  -9   3  -6 103470. 1888.29  14
  -9  -3  -6 102320. 1786.89  14
  -9  -3  -6 96793.0 1284.09   7
  -9  -3  -6 101465. 1594.33   6
  -9   3  -6 95392.3 2155.82  12
  -9   3  -6 101735. 1666.20  11
  -9  -3  -6 101761. 1683.16  11
  -9  -3  -6 96571.5 3359.73   4
  -9   3  -6 104597. 3768.21   4
  -9   3  -6 98737.3 3842.62   1
   9  -3   7-495.022 302.477  17
  -9   3  -7 65.0565 146.962  15
  -9   3  -7 137.873 111.473  14
  -9  -3  -7 126.042 125.554  14
  -9  -3  -7 19.5276 136.165  15
  -9  -3  -7 112.952 80.5605   7
  -9   3  -7 92.7792 191.681  12
  -9   3  -7 266.820 120.933  11
  -9  -3  -7 177.693 110.508  11
  -9  -3  -7 114.779 126.702   6
  -9  -3  -7 95.3997 99.8324   8
  -9  -3  -8 53141.1 1218.73  14
  -9   3  -8 51620.5 1278.31  14
  -9  -3  -8 53435.0 974.486   7
  -9  -3  -8 52337.9 1184.44   6
  -9   3  -8 51350.3 1498.86  12
  -9   3  -8 52355.8 1180.35  11
  -9  -3  -8 52835.4 1191.00  11
  -9  -3  -8 51963.3 1078.11  10
  -9   3  -8 52336.5 1359.18  15
  -9  -3  -8 51003.4 1465.52  15
  -9  -3  -8 53797.1 1209.96   8
  -9   3  -9 279.280 102.213  11
  -9  -3  -9 382.317 113.061  11
  -9  -3  -9-90.7825 261.999  12
  -9   3  -9 487.468 194.526  12
  -9  -3  -9 276.182 106.078  10
  -9  -3  -9 375.991 137.144   6
  -9   3  -9 276.001 128.938  15
  -9   3  -9 602.808 166.456  14
  -9  -3  -9 246.373 112.725  14
  -9  -3  -9 63.8837 198.741  15
  -9  -3  -9 201.518 85.0615   7
  -9  -3 -10 32814.6 750.150   7
  -9  -3 -10 33523.6 998.193   6
  -9  -3 -10 31288.6 831.969  10
  -9   3 -10 33809.3 1141.61  12
  -9   3 -10 31788.9 872.933  11
  -9  -3 -10 31777.2 878.809  11
  -9  -3 -10 31561.1 1069.04  12
  -9  -3 -10 32602.9 878.622  14
  -9   3 -10 33287.5 982.152  15
  -9  -3 -10 33783.2 1132.84  15
  -9  -3 -11 2909.07 221.066   7
  -9  -3 -11 2561.29 294.979   6
  -9  -3 -11 2964.34 259.112  10
  -9  -3 -11 2787.38 251.555  14
  -9   3 -11 2879.97 287.098  15
  -9  -3 -11 2835.90 341.910  15
  -9   3 -11 2859.86 344.047  12
  -9   3 -11 2648.06 256.601  11
  -9  -3 -11 3121.85 274.583  11
  -9  -3 -11 2635.56 347.565  12
  -9  -3 -12 69812.8 990.271   7
  -9  -3 -12 69779.4 1123.09  14
  -9  -3 -12 75780.9 1504.16  15
  -9   3 -12 73717.0 1271.55  15
  -9   3 -12 72791.9 1507.65  12
  -9  -3 -12 69265.4 1610.66  12
  -9   3 -12 70240.7 1177.80  11
  -9  -3 -12 69175.7 1178.25  11
  -9  -3 -13 12.8734 66.4703   7
  -9   3 -13 154.191 139.879  12
  -9   3 -13-28.8115 106.440  15
  -9   3 -14 20238.7 523.563  15
  -9   3 -14 20264.4 665.889  12
  -9   3 -15 1359.13 166.354  12
  -9  -4  15 16983.6 373.748   8
   9  -4 -15 16843.2 371.308  10
   9   4 -15 16238.5 327.149   9
   9   4 -15 16613.8 360.738  13
  -9  -4  14 4141.94 222.180   8
   9   4 -14 3830.20 193.791   9
   9  -4 -14 3797.47 217.280  10
   9   4 -14 3785.77 206.099  13
  -9  -4  13 39981.2 756.877   8
   9   4 -13 39658.3 674.140   9
   9   4 -13 39215.6 690.617  10
   9  -4 -13 38851.4 768.393  10
   9   4 -13 38078.5 705.267  13
   9   4 -12 2319.57 187.468   9
   9   4 -12 2489.71 204.359  10
   9  -4 -12 2207.42 210.007  10
   9   4 -12 2359.70 203.761  13
   9   4 -11 104374. 1243.39   9
   9   4 -11 107795. 1340.70  13
   9   4 -10 14047.0 468.856   9
   9   4 -10 14016.3 501.535  13
   9   4  -9 11035.9 426.682   9
   9   4  -9 11469.7 463.808  13
   9   4  -8 5714.58 332.023  13
  -9  -4   7 16332.3 636.043   8
   9   4  -7 16482.0 551.457  13
   9   4  -6 3964.90 591.290  18
   9   4  -6 4664.82 293.518  13
  -9  -4   6 4845.02 363.496   8
   9  -4  -6 4821.50 623.014   3
  -9  -4   5 70091.0 1422.65   8
   9   4  -5 69405.8 2446.55  18
   9   4  -5 68339.0 1092.82  13
   9  -4  -5 71475.0 2457.28   3
  -9   4   5 73410.3 2287.30   1
   9   4  -4 4239.29 641.776  18
  -9   4   4 4890.24 654.540   1
   9  -4  -4 4892.30 669.081   3
  -9  -4   4 4817.82 410.791   8
   9   4  -3 48081.1 2255.51  18
  -9   4   3 51672.9 2344.70   1
   9  -4  -3 54095.4 2312.95   3
  -9  -4   3 49488.6 1419.13   8
   9  -4  -2 18801.7 1434.23   3
  -9  -4   2 15650.1 937.199   8
   9   4  -2 17354.2 1484.07  18
  -9  -4   2 17234.5 799.282   6
  -9  -4   2 18881.5 1309.08  19
  -9   4   2 19874.5 1647.54   1
  -9  -4   1 234453. 2709.56   6
  -9  -4   1 231248. 3704.16   8
   9   4  -1 230777. 5534.14  18
  -9   4   1 240163. 5573.33   1
  -9  -4   1 234666. 4596.92  19
  -9  -4   0 7030.93 815.216  19
  -9  -4   0 7368.47 637.493  14
  -9  -4   0 7861.39 472.708   6
  -9   4   0 8123.29 607.814  11
  -9  -4   0 7559.96 582.601  11
  -9  -4   0 7933.92 624.563   8
   9   4   0 7035.93 916.135  18
  -9   4   0 7913.82 978.878   1
  -9   4   0 8026.63 723.346   4
   9  -4   0 6428.10 976.109   3
  -9  -4  -1 204718. 4160.46  19
   9   4   1 208972. 4617.86  18
  -9  -4  -1 213333. 2295.12   6
  -9   4  -1 225165. 2876.14  11
  -9  -4  -1 219444. 2837.87  11
  -9  -4  -1 202711. 3574.85  14
  -9  -4  -1 216865. 2969.83   8
  -9   4  -1 211243. 4918.24   1
  -9   4  -1 193079. 3732.46   4
   9  -4   1 209222. 6464.92   3
   9   4   2 4205.64 635.516  18
  -9   4  -2 3536.48 530.739   4
   9  -4   2 3973.89 931.793   3
  -9   4  -2 4033.99 363.971  11
  -9  -4  -2 3585.83 344.187  11
  -9  -4  -2 4100.26 317.264   6
  -9  -4  -2 3628.22 449.178  14
  -9  -4  -2 3621.73 361.584   8
  -9   4  -2 4242.67 705.929   1
  -9   4  -3 5792.82 730.219   4
   9  -4   3 5664.27 992.371   3
  -9  -4  -3 6198.46 530.955  14
  -9  -4  -3 5943.58 374.829   6
  -9  -4  -3 5740.28 325.414   7
  -9   4  -3 5700.64 419.755  11
  -9  -4  -3 5754.83 424.026  11
  -9   4  -3 5860.65 831.658   1
  -9   4  -3 6245.58 435.930   8
  -9  -4  -3 5854.07 443.099   8
   9   4   4 984.100 318.380   3
  -9   4  -4-270.010 195.951   4
   9  -4   4-480.137 274.559   3
  -9   4  -4 237.731 167.458  15
  -9  -4  -4 269.730 138.805  14
  -9  -4  -4 193.212 86.7380   7
  -9   4  -4 328.746 177.303  12
  -9   4  -4 203.501 273.931   1
  -9  -4  -4 266.042 102.238   6
  -9   4  -4 210.735 99.9594  11
  -9  -4  -4 204.675 104.422  11
  -9  -4  -4 58.2573 106.183   8
  -9   4  -4 280.844 109.188   8
  -9  -4  -5 67605.3 1109.13   7
  -9  -4  -5 69011.8 1274.28   6
  -9   4  -5 66479.8 1828.41  12
  -9   4  -5 66975.4 1349.11  11
  -9  -4  -5 69683.0 1382.98  11
  -9   4  -5 70597.5 2913.81   4
   9  -4   5 66045.5 2777.03   3
  -9   4  -5 66778.6 2908.18   1
  -9  -4  -5 72916.3 1454.63   8
  -9   4  -5 67711.0 1371.56   8
  -9   4  -5 67724.9 1645.27  14
  -9   4  -5 65113.5 1778.74  15
  -9  -4  -5 67207.9 1518.23  14
  -9  -4  -6 1705.31 273.787  15
  -9   4  -6 2104.46 302.260  14
  -9  -4  -6 2422.06 292.281  14
  -9  -4  -6 2295.40 213.332   7
  -9  -4  -6 2498.76 258.316   6
  -9   4  -6 2213.02 254.265  11
  -9  -4  -6 1956.82 241.966  11
  -9   4  -6 1975.64 344.533  12
  -9   4  -6 2336.80 348.968  15
  -9   4  -6 1605.64 472.731   1
  -9  -4  -6 2369.02 271.053   8
  -9   4  -6 2138.82 256.843   8
  -9   4  -6 1986.36 543.730   4
  -9   4  -7 134017. 2515.13  12
  -9   4  -7 137551. 1905.33  11
  -9  -4  -7 137171. 1906.20  11
  -9  -4  -7 138604. 1605.03   7
  -9  -4  -7 142841. 1878.30   6
  -9   4  -7 140204. 2325.16  15
  -9  -4  -7 141204. 2554.55  15
  -9  -4  -7 139575. 1959.32   8
  -9   4  -7 143131. 2260.72  14
  -9  -4  -7 140929. 2011.34  14
  -9   4  -8 10068.2 603.621  15
  -9  -4  -8 9343.36 650.382  15
  -9  -4  -8 9562.81 432.230   7
  -9  -4  -8 9492.23 495.247   6
  -9  -4  -8 9469.63 513.745  14
  -9   4  -8 9892.01 587.541  14
  -9   4  -8 9576.84 662.768  12
  -9   4  -8 9421.16 493.489  11
  -9  -4  -8 9268.15 492.713  11
  -9   4  -9 2033.86 272.897  15
  -9  -4  -9 1870.73 193.475   7
  -9  -4  -9 1995.57 238.715   6
  -9  -4  -9 1858.39 223.069  14
  -9  -4  -9 2102.94 319.449  15
  -9   4  -9 2078.86 232.616  11
  -9  -4  -9 1998.96 222.935  11
  -9   4  -9 2082.98 323.964  12
  -9  -4 -10 7202.13 548.794  15
  -9   4 -10 7542.95 462.576  15
  -9  -4 -10 6697.88 430.629   6
  -9  -4 -10 6635.73 349.860   7
  -9  -4 -10 6835.76 395.495  14
  -9   4 -10 7327.18 529.839  12
  -9   4 -10 7077.03 407.348  11
  -9  -4 -10 6592.21 392.288  11
  -9  -4 -10 7014.49 540.338  12
  -9   4 -11 60424.7 1188.31  15
  -9  -4 -11 61077.9 1466.37  15
  -9  -4 -11 58751.7 975.208   7
  -9  -4 -11 57341.3 1280.71   6
  -9  -4 -11 54654.8 1026.36  14
  -9   4 -11 56719.6 1081.90  11
  -9   4 -11 59613.6 1387.68  12
  -9  -4 -11 57026.9 1093.82  11
  -9  -4 -11 58978.1 1549.53  12
  -9  -4 -12 2265.47 276.122   6
  -9   4 -12 2389.97 287.837  12
  -9  -4 -13 21861.7 515.123   7
  -9   4 -13 23431.5 751.155  12
  -9   4 -13 21580.6 582.906  15
  -9   4 -14 165.385 78.9948  15
   9   5 -15 1970.36 116.191  13
  -9  -5  15 1956.29 113.772   8
   9   5 -14 45.6094 51.3617   9
   9  -5 -14 113.652 50.3818  10
  -9  -5  14 68.9319 55.0290   8
   9   5 -14 52.7138 48.5223  13
   9   5 -13 6605.81 285.364  13
  -9  -5  13 6260.10 288.082   8
   9   5 -13 6585.65 259.522   9
   9  -5 -13 6342.94 290.698  10
   9   5 -12 71773.0 996.053  13
  -9  -5  12 74130.2 1073.76   8
   9   5 -12 72664.5 928.131   9
   9  -5 -12 72082.9 1066.84  10
   9   5 -11 873.449 121.840   9
   9   5 -11 960.879 141.348  13
  -9  -5  11 1025.04 150.985   8
   9   5 -10 43694.3 856.950  13
  -9  -5  10 43453.9 934.661   8
   9   5 -10 43083.6 780.062   9
   9   5  -9 8426.57 389.565  13
  -9  -5   9 8160.48 427.770   8
   9   5  -8 5034.77 306.851  13
  -9  -5   8 4974.03 347.312   8
   9   5  -7 255.181 99.4365  13
  -9  -5   7 144.654 104.007   8
  -9  -5   6 103230. 1656.23   8
   9   5  -6 108387. 1396.15  13
   9   5  -6 102457. 3037.78  18
  -9  -5   5 258.531 122.725   8
   9   5  -5 381.451 249.953  18
   9   5  -5 281.390 88.6136  13
  -9   5   5 167.416 121.713   2
  -9  -5   4 160037. 4005.59  19
  -9  -5   4 155410. 2309.80   8
  -9   5   4 159049. 3867.34   1
   9  -5  -4 160465. 4070.63   3
  -9   5   4 157580. 3937.36   2
   9   5  -4 168557. 4289.82  18
  -9  -5   3 5285.89 752.677  19
   9  -5  -3 5427.96 789.807   3
   9   5  -3 4398.60 777.296  18
  -9   5   3 4480.46 762.509   1
  -9  -5   3 4643.27 459.715   8
  -9   5   2 597.493 276.905   1
  -9  -5   2 1275.84 308.875   8
  -9  -5   2 590.764 179.857   6
   9   5  -2 681.067 393.351  18
  -9  -5   2 242.019 205.724  19
  -9   5   1 295.553 208.860   1
   9  -5  -1 515.206 403.748   3
  -9  -5   1 403.825 173.950   8
  -9  -5   1 772.201 176.568   6
  -9   5   1 265.940 208.915  11
  -9  -5   1 277.001 161.334  11
   9   5  -1 548.918 308.704  18
  -9  -5   1 465.615 171.866  19
  -9  -5   0 125316. 2440.48   8
  -9  -5   0 114133. 2486.56  14
  -9  -5   0 125967. 1819.11   6
  -9   5   0 130596. 2368.57  11
  -9  -5   0 126246. 2278.72  11
   9   5   0 124563. 3732.48  18
  -9   5   0 129684. 3825.07   1
  -9   5   0 132998. 3088.67   4
   9  -5   0 120648. 4720.42   3
  -9  -5   0 136949. 3751.27  19
  -9  -5  -1 8399.08 581.060   8
  -9  -5  -1 7479.44 709.795  14
  -9  -5  -1 8357.11 457.736   6
  -9   5  -1 8468.01 563.702  11
  -9  -5  -1 7744.78 536.569  11
   9   5   1 7892.80 902.591  18
  -9   5  -1 8193.64 945.163   1
  -9   5  -1 8633.09 823.633   4
   9  -5   1 8831.10 1456.72   3
  -9  -5  -1 7336.81 865.569  19
  -9  -5  -2 29223.0 1014.44   8
  -9  -5  -2 27061.3 1204.99  14
  -9  -5  -2 27941.9 807.037   6
  -9   5  -2 29001.2 964.914  11
  -9  -5  -2 27920.0 943.529  11
   9   5   2 27897.6 1597.81  18
  -9  -5  -2 27623.4 1605.29  19
  -9   5  -2 26698.8 1520.52   4
   9  -5   2 27640.9 2370.82   3
  -9   5  -2 29640.1 1799.62   1
  -9  -5  -3 9996.22 480.342   6
  -9   5  -3 10095.3 548.637  11
  -9  -5  -3 10024.0 546.179  11
  -9  -5  -3 10579.7 692.987  14
  -9  -5  -3 9747.04 565.042   8
  -9   5  -3 9610.30 968.068   4
   9  -5   3 11662.4 1401.31   3
  -9   5  -3 10003.6 1066.60   1
  -9  -5  -4 5916.85 375.653   6
  -9  -5  -4 6062.27 350.090   7
  -9   5  -4 6238.67 424.651  11
  -9  -5  -4 6067.52 416.845  11
  -9   5  -4 5407.34 563.149  15
  -9  -5  -4 5877.28 482.625  14
  -9  -5  -4 6021.95 431.504   8
   9  -5   4 7531.74 1009.53   3
  -9   5  -4 6358.56 843.164   4
  -9  -5  -5 14324.3 580.404   6
  -9  -5  -5 13952.6 519.604   7
  -9   5  -5 14313.7 915.410  12
  -9   5  -5 13645.6 604.789  11
  -9  -5  -5 14424.2 627.714  11
  -9  -5  -5 14106.4 697.807  14
  -9   5  -5 14052.6 839.134  15
  -9  -5  -5 14136.7 637.317   8
  -9   5  -5 12298.8 1245.40   4
   9  -5   5 15192.6 1344.06   3
  -9   5  -5 14166.3 1319.21   1
  -9  -5  -6 100329. 1407.76   7
  -9  -5  -6 105625. 1585.38   6
  -9   5  -6 101464. 2294.16  12
  -9   5  -6 104341. 1649.11  11
  -9  -5  -6 105060. 1660.18  11
  -9   5  -6 110764. 2182.66  14
  -9  -5  -6 104809. 1784.44  14
  -9  -5  -6 107205. 1712.15   8
  -9   5  -6 103320. 2119.34  15
  -9   5  -7 414.866 129.977  11
  -9  -5  -7 513.942 136.858  11
  -9   5  -7 423.555 212.169  12
  -9  -5  -7 156.687 166.884  15
  -9  -5  -7 454.018 134.064  14
  -9   5  -7 436.358 196.080  15
  -9  -5  -7 699.058 154.342   6
  -9  -5  -7 423.288 123.476   8
  -9  -5  -7 413.171 117.305   7
  -9  -5  -8 30605.0 885.121  14
  -9  -5  -8 30406.0 857.253  11
  -9   5  -8 31115.4 1163.51  12
  -9   5  -8 29455.8 844.809  11
  -9  -5  -8 31006.6 776.198   7
  -9  -5  -8 30499.4 867.371   6
  -9  -5  -8 29883.4 1112.23  15
  -9   5  -8 32471.9 1048.09  15
  -9  -5  -9 4635.20 333.984  14
  -9   5  -9 4924.32 341.230  11
  -9   5  -9 5772.91 488.033  12
  -9  -5  -9 5034.03 343.861  11
  -9  -5  -9 5104.21 318.711   7
  -9  -5  -9 5125.82 367.375   6
  -9   5  -9 4809.50 391.977  15
  -9  -5 -10 31829.3 804.415  14
  -9   5 -10 29844.5 794.319  11
  -9  -5 -10 30330.3 802.385  11
  -9   5 -10 33467.1 1081.52  12
  -9  -5 -10 31622.6 751.858   7
  -9  -5 -10 30982.5 888.024   6
  -9   5 -10 32298.9 906.880  15
  -9  -5 -11 7707.99 367.702  14
  -9   5 -11 7734.65 495.637  12
  -9  -5 -11 8333.93 406.863  11
  -9  -5 -11 7647.30 358.786   7
  -9  -5 -11 7771.29 457.194   6
  -9   5 -11 7903.20 416.913  15
  -9   5 -12 70389.4 1340.97  12
  -9  -5 -12 67711.5 984.645   7
  -9  -5 -12 67871.6 1329.48   6
  -9   5 -12 68169.6 1085.18  15
  -9  -5 -13 163.280 69.1530   7
  -9   5 -13 11.7342 92.6946  15
  -9   5 -13 176.218 120.456  12
  -9   5 -14 12382.0 453.788  12
  -9  -6  14 5916.76 214.045   8
   9   6 -14 5814.46 216.966  13
  -9   6  14 5470.80 213.925  13
   9   6 -13 14376.7 334.470   9
   9  -6 -13 14189.5 373.362  10
   9   6 -13 13904.9 381.253  13
  -9  -6  13 13943.8 391.070   8
  -9   6  12 504.666 81.6146   5
  -9  -6  12 330.045 91.8188   8
   9  -6 -12 381.744 89.1714  10
   9   6 -12 374.235 80.8423   9
   9   6 -12 355.846 92.1604  13
  -9  -6  11 98354.2 1262.14   8
   9   6 -11 99399.1 1190.20  13
   9   6 -11 98299.3 1051.48   9
   9   6 -10 18371.7 538.887  13
  -9  -6  10 17766.0 575.386   8
   9   6  -9 10655.2 428.773  13
  -9  -6   9 10646.5 474.177   8
   9   6  -8 5847.98 325.149  13
  -9  -6   8 5959.55 372.929   8
  -9  -6   7 58256.3 1191.72   8
   9   6  -7 58119.7 1020.49  13
  -9  -6   6 161.900 113.186   8
   9   6  -6 172.621 82.0558  13
  -9  -6   5 137140. 2040.37   8
   9   6  -5 137872. 1556.24  13
   9   6  -4 2211.42 556.957  18
  -9  -6   4 1983.67 480.279  19
  -9  -6   4 1765.91 263.649   8
   9  -6  -4 1693.37 434.135   3
  -9   6   3 12288.1 1328.93   1
  -9  -6   3 10115.9 684.882   8
   9   6  -3 8770.50 1165.84  18
   9  -6  -3 9953.76 1123.61   3
  -9  -6   3 8652.09 1034.58  19
  -9  -6   2 34070.3 2032.22  19
  -9   6   2 32050.7 2043.82   1
  -9  -6   2 31503.3 1046.52   6
   9   6  -2 31753.4 2194.74  18
   9  -6  -2 32650.6 2207.89   3
  -9  -6   2 31911.8 1446.08   8
  -9  -6   1 90213.5 2229.48   8
  -9  -6   1 94620.1 1662.06   6
  -9   6   1 96246.2 2276.05  13
  -9   6   1 92724.8 3294.67   1
   9   6  -1 94250.7 3519.61  18
  -9  -6   1 96499.0 3460.75  19
   9  -6  -1 94402.3 4064.43   3
  -9   6   1 85630.3 2481.87   4
  -9   6   0 1002.27 284.048   4
   9  -6   0-350.145 335.294   3
  -9  -6   0 56.0893 149.007  14
  -9   6   0 185.960 126.829  13
  -9   6   0 102.930 198.796   1
  -9  -6   0 31.4474 100.345   6
   9   6   0-369.413 388.918  18
  -9  -6   0-743.618 340.141  19
  -9  -6   0 243.627 150.139   8
   9   6   1 117697. 3495.28  18
  -9  -6  -1 109051. 2630.64  14
  -9  -6  -1 115396. 1661.79   6
  -9   6  -1 112034. 3456.72   1
  -9  -6  -1 114545. 2109.94   8
   9  -6   1 116805. 5326.00   3
  -9   6  -1 117703. 3161.67   4
  -9  -6  -2 493.865 143.719   8
  -9  -6  -2 685.940 149.663   6
  -9  -6  -2 581.402 196.695  14
   9   6   2 757.941 319.730  18
  -9  -6  -2 758.978 277.905  19
  -9   6  -2 288.806 190.936   4
   9  -6   2 1030.25 457.257   3
  -9   6  -2 389.473 255.544   1
  -9  -6  -3 15109.5 686.786   8
  -9  -6  -3 13812.5 564.348   6
  -9   6  -3 13057.6 1191.99   1
   9  -6   3 14625.5 1597.86   3
  -9   6  -3 15627.6 1274.62   4
  -9  -6  -3 14320.1 803.396  14
   9   6   3 15005.6 1172.38  18
  -9  -6  -4 229.466 105.327   7
  -9  -6  -4 249.687 108.908   6
  -9  -6  -4 279.365 124.623   8
  -9   6  -4-94.5468 265.298  15
  -9  -6  -4 221.977 113.997  14
  -9   6  -5 55956.1 1841.69  12
  -9   6  -5 52626.4 1628.19  15
  -9  -6  -5 55951.9 1368.53  14
  -9  -6  -5 55769.9 1136.90   6
  -9  -6  -5 54595.8 1066.05   7
  -9  -6  -5 56713.7 1236.97   8
  -9   6  -6 195.664 205.920  12
  -9   6  -6-59.0732 174.369  15
  -9  -6  -6 153.210 128.248  14
  -9  -6  -6 235.330 122.191   6
  -9  -6  -6 193.616 106.456   8
  -9  -6  -6 1.35571 99.0170   7
  -9   6  -7 69503.5 1822.33  12
  -9  -6  -7 71417.7 1201.98   7
  -9  -6  -7 71025.0 1307.89   6
  -9   6  -7 72850.6 1646.23  15
  -9  -6  -7 69782.5 1367.65  14
  -9  -6  -8 7666.78 415.680  11
  -9   6  -8 7991.55 597.287  12
  -9  -6  -8 7547.05 395.235   7
  -9  -6  -8 7730.22 439.108   6
  -9   6  -8 7523.77 505.668  15
  -9  -6  -8 7243.03 419.223  14
  -9  -6  -9 1554.18 189.044   7
  -9  -6  -9 1320.60 174.639  11
  -9   6  -9 1463.29 267.304  12
  -9  -6  -9 1338.17 175.778  14
  -9   6  -9 1201.11 204.270  15
  -9   6 -10 16552.9 737.982  12
  -9  -6 -10 15270.2 520.547   7
  -9  -6 -10 14643.1 590.047   6
  -9   6 -10 15168.4 593.339  15
  -9  -6 -10 14967.7 516.574  14
  -9   6 -11 28335.8 877.430  12
  -9  -6 -11 25993.7 608.047  14
  -9  -6 -11 27552.4 804.957   6
  -9  -6 -11 26092.0 645.066   7
  -9   6 -11 26776.6 704.536  15
  -9  -6 -12 146.946 104.989   6
  -9   6 -12 218.580 123.578  12
  -9  -6 -12 223.253 86.0624   7
  -9   6 -12 235.933 87.1859  15
  -9   6 -13 35307.9 801.150  12
  -9  -6 -13 33836.1 626.989   7
   9   7 -14 1860.37 110.935  13
  -9  -7  13 10802.5 292.151   8
   9   7 -13 11234.5 314.566  13
  -9   7  13 10875.8 334.043  13
   9   7 -12 35802.7 625.731  13
  -9   7  12 34296.6 534.321   5
  -9  -7  12 35266.0 622.948   8
   9   7 -11 1930.44 168.743  13
  -9   7  11 1659.28 138.995   5
  -9  -7  11 1569.34 156.162   8
   9   7 -10 60294.6 931.242  13
  -9   7  10 57969.9 867.091   5
  -9  -7  10 58509.8 975.712   8
   9   7  -9 9191.99 383.838  13
  -9   7   9 7992.84 346.624   5
  -9  -7   9 8758.94 405.802   8
  -9   7   8 3024.13 228.662   5
  -9  -7   8 3318.03 270.467   8
  -9  -7   7 461.853 130.458   8
   9   7  -7 350.145 103.485  13
   9   7  -6 150535. 1613.48  13
  -9  -7   6 140723. 1923.78   8
  -9  -7   5-15.6155 119.051   8
   9   7  -5 107.403 91.0728  13
  -9  -7   4 98929.9 1913.83   8
  -9  -7   3 15898.6 875.665   8
  -9  -7   2-8.19196 228.624   8
  -9  -7   2 31.2903 139.241   6
  -9   7   2 366.764 250.954  13
  -9  -7   1 2619.08 355.256  14
  -9   7   1 2699.71 420.776  13
  -9   7   1 2901.86 622.425   1
   9  -7  -1 2463.07 737.299   3
  -9  -7   1 2552.75 293.786   6
  -9  -7   1 2289.80 348.650   8
   9   7  -1 2369.73 592.096  18
  -9  -7   1 1576.28 538.019  19
   9   7   0 93942.2 3359.59  18
  -9  -7   0 86913.2 2203.44  14
  -9   7   0 96313.7 2067.88  13
  -9  -7   0 98107.9 3749.32  19
  -9   7   0 91088.5 3169.60   1
  -9  -7   0 90161.5 1536.03   6
  -9  -7   0 96551.9 2012.17   8
  -9   7   0 91184.9 2764.59   4
   9  -7   0 95529.9 4929.63   3
  -9  -7  -1 9769.92 496.420   6
  -9  -7  -1 8635.39 1101.80  19
  -9  -7  -1 8833.18 757.362  14
  -9   7  -1 8840.33 902.172   4
   9   7   1 8406.55 959.468  18
  -9  -7  -2 78637.3 1349.43   6
  -9  -7  -2 77421.0 2008.37  14
  -9  -7  -3 23270.2 734.989   6
  -9  -7  -3 24509.0 1037.76  14
  -9  -7  -4 17883.3 642.396   6
  -9   7  -4 17513.8 1025.22  15
  -9  -7  -4 18165.9 823.760  14
  -9  -7  -5 23638.0 867.416  14
  -9   7  -5 23213.4 1080.30  15
  -9   7  -5 22999.3 1186.28  12
  -9  -7  -5 23165.0 732.047   6
  -9  -7  -5 23586.6 712.197   7
  -9   7  -6 68771.4 1705.32  15
  -9  -7  -6 71311.1 1404.93  14
  -9   7  -6 66156.0 1890.90  12
  -9  -7  -6 67638.8 1253.58   6
  -9  -7  -6 70017.6 1213.11   7
  -9   7  -7 1526.87 229.666   9
  -9   7  -7 1721.03 268.026  15
  -9  -7  -7 2005.07 233.807  14
  -9  -7  -7 1899.85 225.394   6
  -9  -7  -7 1826.95 210.322   7
  -9   7  -7 1827.64 322.010  12
  -9   7  -8 23365.6 842.355  15
  -9  -7  -8 22705.2 694.441  14
  -9  -7  -8 23638.8 735.742   6
  -9  -7  -8 22492.2 666.366   7
  -9   7  -8 23277.8 974.470  12
  -9   7  -9 5262.81 368.398  15
  -9  -7  -9 5144.40 306.628  14
  -9  -7  -9 5603.98 360.744   6
  -9  -7  -9 5600.23 329.749   7
  -9   7  -9 5665.47 461.076  12
  -9   7 -10 6806.36 372.046  15
  -9  -7 -10 7118.07 319.999  14
  -9   7 -10 6897.18 455.478  12
  -9  -7 -10 7196.31 399.013   6
  -9  -7 -10 6657.87 344.940   7
  -9   7 -11 1696.39 171.456  15
  -9   7 -11 1864.77 230.386  12
  -9  -7 -11 1700.95 207.048   6
  -9  -7 -11 1677.35 172.270   7
  -9   7 -12 52465.1 768.294  15
  -9   7 -12 55080.2 1020.78  12
  -9  -7 -12 53034.5 1049.05   6
  -9  -7 -12 52643.4 830.031   7
  -9   7 -13 62.8483 77.8489  12
  -9   8  13 11554.8 282.277  13
   9   8 -13 12422.0 289.343  13
  -9   8  12 188.279 46.5156   5
   9   8 -12 182.246 56.3571  13
  -9   8  12 115.928 59.4924  13
  -9   8  11 46755.9 651.571   5
  -9  -8  11 47965.2 695.998   8
  -9   8  11 47625.3 865.584  13
   9   8 -11 49508.5 735.233  13
  -9   8  10 7511.03 295.414   5
  -9  -8  10 7746.97 319.811   8
  -9   8  10 8090.65 410.011  13
   9   8 -10 7822.97 317.239  13
  -9  -8   9 20608.0 567.541   8
  -9   8   9 19289.1 511.520   5
   9   8  -9 20098.9 533.628  13
  -9  -8   8 27070.2 703.025   8
  -9   8   8 26695.9 638.918   5
   9   8  -8 28314.5 656.064  13
  -9  -8   7 30586.9 806.358   8
   9   8  -7 29867.2 689.724  13
  -9   8   7 30852.2 721.213   5
  -9  -8   6 352.252 108.596   8
  -9   8   6 585.617 126.226   5
   9   8  -5 102565. 1301.02  13
  -9   8   5 107426. 2340.75  13
  -9   8   4 9180.22 793.545  13
  -9   8   3 1733.13 449.342  13
  -9   8   2 15147.2 1084.32  13
  -9   8   1 38534.0 1523.54  13
  -9  -8   1 36447.9 1045.42   6
  -9  -8   1 35935.5 1260.63  14
  -9   8   0 21174.0 1009.17  13
  -9  -8   0 20896.7 744.196   6
  -9  -8   0 19518.3 1053.83  14
  -9   8  -1 125796. 2240.63  13
  -9  -8  -1 131113. 1784.29   6
  -9  -8  -2 499.602 136.295   6
  -9  -8  -2 517.367 184.421  14
  -9  -8  -3 6109.52 378.350   6
  -9  -8  -3 6589.84 532.244  14
  -9  -8  -4 25685.9 759.332   6
  -9   8  -4 23338.7 1156.55  15
  -9  -8  -4 25394.8 939.747  14
  -9   8  -5 80675.3 2195.92  12
   9  -8   5 78741.3 1427.18  20
  -9  -8  -5 78362.8 1323.43   6
  -9  -8  -5 81205.1 1540.17  14
  -9   8  -5 81049.5 1956.12  15
  -9  -8  -6 266.698 119.350   6
   9  -8   6 133.407 101.600  20
  -9  -8  -6 41.6771 96.2913  14
  -9   8  -6 72.7499 147.753  15
  -9   8  -6 119.362 212.029  12
  -9   8  -7 39677.7 1337.49  12
  -9  -8  -7 37992.3 896.031  14
  -9   8  -7 39750.1 1132.43  15
  -9  -8  -7 38375.5 918.886   6
  -9   8  -7 35586.6 1014.31   9
  -9   8  -8 5809.45 490.478  12
  -9  -8  -8 5588.29 316.670  14
  -9   8  -8 5794.49 402.075  15
  -9  -8  -8 5719.99 360.590   6
  -9  -8  -8 6029.78 349.078   7
  -9   8  -8 5066.93 367.003   9
  -9  -8  -9 1012.01 164.814   6
  -9  -8  -9 1005.02 143.314   7
  -9   8  -9 594.426 130.351  15
  -9   8  -9 581.542 165.055  12
  -9   8 -10 6255.49 325.544  15
  -9  -8 -10 6126.48 352.659   6
  -9   8 -10 6484.96 409.759  12
  -9   8 -11 22476.0 516.351  15
  -9  -8 -11 23482.9 671.092   6
  -9   8 -11 24338.0 695.616  12
  -9  -8 -12 4908.61 298.727   6
  -9   8 -12 4660.97 272.291  12
   9   9 -12 27326.7 426.983  13
  -9   9  12 26199.2 450.951  13
  -9   9  11 590.234 97.0447  13
   9   9 -11 560.981 80.8588  13
  -9   9  11 466.688 64.3862   5
   9   9 -10 31351.5 574.222  13
  -9   9  10 31521.7 719.127  13
  -9   9  10 31748.4 541.428   5
   9   9  -9 7890.01 310.800  13
  -9   9   9 7905.96 413.027  13
  -9   9   9 7003.99 286.087   5
   9   9  -8 3555.65 220.537  13
  -9   9   8 4055.14 339.308  13
  -9   9   8 3464.95 221.854   5
  -9   9   7 3860.04 367.704  13
   9   9  -7 3514.75 231.969  13
  -9   9   7 3406.04 235.371   5
  -9   9   6 76010.4 1697.89  13
   9   9  -6 76623.3 1056.26  13
  -9   9   6 76026.6 1132.55   5
  -9   9   5 6070.35 542.236  13
   9   9  -5 5561.91 290.220  13
  -9   9   5 5303.96 316.912   5
  -9   9   4 22630.0 1173.62  13
  -9   9   4 21086.2 645.740   5
  -9   9   3 3419.10 566.909  13
  -9  -9   2 9234.47 576.540  14
  -9   9   2 9768.22 892.197  13
  -9  -9   1 8678.21 622.308  14
  -9   9   1 8999.94 750.874  13
  -9  -9   0 72876.7 1994.99  14
  -9  -9   0 75385.5 1403.38   6
  -9   9   0 78569.1 1990.71  13
  -9  -9  -1 2173.49 369.323  14
  -9  -9  -1 2054.62 236.925   6
  -9   9  -1 2076.19 326.411  13
  -9  -9  -2 31985.7 1187.94  14
  -9  -9  -2 32405.3 857.850   6
  -9   9  -2 32683.7 1083.78  13
  -9  -9  -3 41078.3 947.926   6
  -9  -9  -3 40654.0 1220.58  14
  -9  -9  -4 14846.1 570.105   6
   9  -9   4 15182.3 678.406  20
  -9   9  -4 14477.7 880.651  15
  -9  -9  -4 15546.5 688.977  14
  -9   9  -5 32520.5 1348.04  12
  -9  -9  -5 31326.5 884.396  14
  -9   9  -5 29632.5 1136.09  15
  -9  -9  -5 29530.6 792.878   6
   9  -9   5 31769.3 901.864  20
  -9   9  -6 67513.0 1793.82  12
  -9  -9  -6 67688.7 1173.74  14
  -9   9  -6 69667.4 1563.03  15
  -9  -9  -6 67923.3 1186.38   6
   9  -9   6 69876.9 1228.53  20
  -9   9  -7 1036.23 194.704   9
  -9   9  -7 1386.18 220.340  15
  -9   9  -7 1051.54 255.158  12
  -9  -9  -7 1323.75 182.349   6
  -9   9  -8 17913.5 766.192  12
  -9   9  -8 15554.1 613.462   9
  -9  -9  -8 16862.5 573.516   6
  -9   9  -8 16992.3 614.004  15
  -9   9  -9 1475.71 221.470  12
  -9   9  -9 1239.91 173.456   9
  -9   9  -9 1268.95 158.980  15
  -9  -9  -9 1536.12 180.853   6
  -9   9 -10 9550.42 340.176  15
  -9  -9 -10 9851.31 420.195   6
  -9   9 -10 10190.5 461.003  12
  -9  -9 -11 6773.01 341.676   6
  -9   9 -11 7344.96 341.028  12
   9  10 -11 37634.9 475.670  13
  -9  10  11 37376.4 543.295  13
   9  10 -10 8423.82 259.270  13
  -9  10  10 8325.46 321.374  13
  -9  10  10 7711.14 225.569   5
   9  10  -9 6210.63 242.900  13
  -9  10   9 6381.39 327.591  13
  -9  10   9 6151.33 236.055   5
   9  10  -8 12895.4 371.559  13
  -9  10   8 12519.5 517.244  13
  -9  10   8 12377.0 368.707   5
   9  10  -7 12372.7 378.521  13
  -9  10   7 12398.0 572.246  13
  -9  10   7 11943.9 392.699   5
  -9  10   6 150.602 131.307  13
   9  10  -6 292.573 76.8826  13
  -9  10   6 371.814 96.6182   5
  -9  10   5 64698.5 1592.45  13
  -9  10   5 64513.4 1014.03   5
  -9  10   4 3412.38 435.424  13
  -9  10   4 3295.65 245.450   5
  -9 -10   3 3163.75 308.134  14
  -9  10   3 2801.14 453.483  13
  -9  10   3 3050.16 243.904   5
  -9 -10   2 4891.31 416.368  14
  -9  10   2 4189.32 606.724  13
  -9  10   2 4277.16 290.867   5
  -9  10   1 61405.7 1977.40  13
  -9 -10   1 58683.0 1526.47  14
  -9  10   0 12263.7 810.031  13
  -9 -10   0 12390.2 794.454  14
  -9  10  -1 77090.2 1844.11  13
  -9 -10  -1 76234.4 1863.95  14
  -9 -10  -1 75895.8 1321.14   6
  -9  10  -2 4469.44 421.639  13
  -9 -10  -2 4322.62 316.848   6
  -9 -10  -2 4082.31 398.851  14
   9 -10   2 4740.50 444.648  20
  -9  10  -3-40.0034 229.370  15
  -9 -10  -3-134.000 175.924  14
   9 -10   3 33.8457 154.346  20
  -9 -10  -3 86.2230 86.6502   6
  -9 -10  -4 11264.7 478.347   6
  -9 -10  -4 11421.6 524.594  14
  -9  10  -4 9799.07 686.796  15
   9 -10   4 11600.1 582.116  20
  -9  10  -5 17208.6 904.876  12
  -9  10  -5 16926.9 801.930  15
   9 -10   5 17651.2 661.750  20
  -9 -10  -5 17413.3 582.444   6
  -9  10  -6 572.113 213.681  12
   9 -10   6 1005.75 163.991  20
  -9 -10  -6 913.278 151.789   6
  -9  10  -6 439.405 156.111   9
  -9  10  -6 1005.93 211.222  15
  -9  10  -7 58791.8 1397.56  12
  -9 -10  -7 58586.4 1021.72   6
  -9  10  -7 59269.9 1156.27  15
  -9  10  -8 9934.91 517.868  12
  -9  10  -8 8390.13 431.056   9
  -9 -10  -8 9443.06 405.365   6
  -9  10  -8 9019.53 395.483  15
  -9  10  -9 1587.31 181.684   9
  -9  10  -9 1877.69 156.558  15
  -9 -10  -9 1757.48 181.720   6
  -9 -10 -10 13237.8 451.937   6
  -9  10 -10 14637.1 475.379  12
  -9  11  10 15737.8 336.470  13
  -9 -11  10 16067.8 330.698  14
  -9  11   9 12695.5 378.715  13
   9  11  -9 12444.5 276.861  13
  -9  11   8 241.563 52.4311   5
  -9  11   8 330.288 89.6694  13
   9  11  -8 320.533 57.5609  13
  -9  11   7 4315.27 206.336   5
   9 -11  -7 4446.72 221.770  20
   9  11  -7 4181.67 188.371  13
  -9  11   7 4412.48 298.375  13
  -9  11   6 20329.5 476.760   5
   9 -11  -6 20818.7 579.221  20
  -9 -11   6 19302.3 549.597  14
  -9  11   6 21681.1 727.078  13
  -9  11   5 9532.36 350.462   5
   9 -11  -5 10131.5 479.331  20
  -9 -11   5 9797.98 423.450  14
  -9  11   5 9823.83 549.148  13
  -9  11   4 42498.3 768.606   5
   9 -11  -4 43125.3 1106.39  20
  -9 -11   4 44061.5 945.085  14
  -9  11   4 43897.9 1272.81  13
  -9  11   3 4742.77 270.739   5
   9 -11  -3 4414.07 417.668  20
  -9 -11   3 5187.95 359.371  14
  -9  11   3 4588.87 470.463  13
  -9  11   2 3368.07 237.268   5
   9 -11  -2 2871.52 386.523  20
  -9 -11   2 3337.07 316.445  14
  -9  11   2 3169.16 434.470  13
  -9  11   1 4585.74 276.732   5
   9 -11  -1 4981.26 564.226  20
  -9 -11   1 5255.21 437.435  14
  -9  11   1 5046.85 584.696  13
  -9  11   0 95539.4 1242.94   5
  -9  11   0 96772.5 2240.53  13
  -9 -11   0 98252.6 2032.62  14
  -9  11  -1 532.184 208.818  13
  -9 -11  -1 433.810 164.576  14
   9 -11   1 164.279 189.278  20
  -9  11  -2 21085.0 883.798  13
   9 -11   2 19269.9 855.899  20
  -9 -11  -2 19930.9 636.366   6
  -9 -11  -3 31213.3 771.073   6
  -9  11  -3 29995.2 1143.03  15
   9 -11   4 3819.16 333.809  20
  -9 -11  -4 3908.92 274.103   6
  -9  11  -4 3574.13 381.417  15
  -9  11  -4 3229.64 360.445  12
  -9 -11  -5 18275.7 561.149   6
  -9  11  -5 17995.8 737.910  15
   9 -11   5 18806.3 662.280  20
  -9  11  -5 17722.0 803.702  12
  -9  11  -5 16654.7 710.139   9
  -9 -11  -6 34426.2 750.421   6
  -9  11  -6 35626.6 1071.92  12
  -9  11  -6 33605.5 870.042  15
   9 -11   6 34825.2 806.196  20
  -9 -11  -7 667.705 122.348   6
  -9  11  -7 636.960 124.967  15
  -9  11  -7 427.110 135.278   9
  -9  11  -7 747.646 178.492  12
  -9 -11  -8 36308.3 727.028   6
  -9  11  -8 38567.8 874.937  12
  -9 -11  -9 2695.05 195.580   6
  -9  11  -9 2823.48 213.444  12
  -9  12   8 14392.8 361.256  13
  -9 -12   8 14024.7 306.961  14
  -9  12   7 7269.19 305.150  13
  -9 -12   7 6699.10 246.205  14
   9 -12  -6 1819.78 131.039  20
  -9  12   6 2002.98 124.809   5
  -9  12   6 2323.07 205.554  13
  -9 -12   6 2035.91 155.317  14
   9 -12  -5 51732.3 832.088  20
  -9  12   5 49518.8 657.552   5
  -9  12   5 52998.3 1032.78  13
  -9 -12   5 51998.9 811.140  14
   9 -12  -4 10445.0 443.982  20
  -9  12   4 9431.46 308.677   5
  -9  12   4 10142.8 504.175  13
  -9 -12   4 9907.50 387.398  14
   9 -12  -3 11805.8 533.670  20
  -9  12   3 11703.2 358.082   5
  -9  12   3 12297.7 604.882  13
  -9 -12   3 11486.0 449.705  14
   9 -12  -2 18982.1 756.578  20
  -9  12   2 18687.3 462.947   5
  -9  12   2 18286.1 790.309  13
  -9 -12   2 18596.9 615.073  14
  -9  12   1 26218.2 996.988  13
   9 -12  -1 25651.0 982.221  20
  -9  12   1 26746.3 563.683   5
  -9  12   0 9511.30 625.905  13
   9 -12   0 9915.77 699.415  20
  -9  12   0 9410.76 337.554   5
  -9  12  -1 31943.2 1112.97  13
   9 -12   1 31091.2 1129.02  20
   9 -12   2 2057.51 286.156  20
  -9  12  -2 2292.11 268.027  15
  -9  12  -2 1990.56 270.260  13
   9 -12   3 611.314 165.207  20
  -9  12  -3 461.089 163.124  15
  -9  12  -3 748.576 172.313  12
  -9  12  -4 7467.87 429.064  12
  -9 -12  -4 7284.98 338.104   6
   9 -12   4 8052.38 458.570  20
  -9  12  -4 7294.58 483.720   9
  -9  12  -4 7931.87 479.786  15
  -9  12  -5 14419.7 592.987  12
  -9 -12  -5 14403.4 455.618   6
   9 -12   5 15324.8 563.352  20
  -9  12  -5 14525.6 621.248   9
  -9  12  -5 14842.4 555.269  15
  -9  12  -6 2436.88 265.361  12
  -9 -12  -6 2263.15 181.194   6
   9 -12   6 2313.98 199.126  20
  -9  12  -6 2268.18 234.090   9
  -9  12  -6 2362.97 183.928  15
  -9  12  -7 34774.8 773.701   9
  -9 -12  -7 35906.3 656.567   6
  -9  13   6 17156.1 383.732  13
  -9  13   5 86.3480 57.2805  13
   9 -13  -4 25131.3 484.459  20
  -9  13   4 24926.5 585.726  13
   9 -13  -3 19472.5 505.901  20
  -9  13   3 19126.9 557.908  13
   9 -13  -2 9733.28 406.425  20
  -9  13   2 9261.25 412.410  13
   9 -13  -1 13388.0 525.863  20
  -9  13   1 14288.1 522.615  13
   9 -13   0 17495.9 651.376  20
  -9  13   0 17102.5 505.087  15
  -9  13   0 16547.0 553.829  13
   9 -13   1 2122.31 258.078  20
  -9  13  -1 2501.77 205.091  13
  -9  13  -1 2431.77 211.720  15
  -9  13  -2 11270.8 408.956  12
  -9  13  -2 10527.7 437.003  15
  -9  13  -3 11072.5 402.377  12
  -9  13  -3 9949.51 559.013   9
  -9  13  -3 10102.3 434.025  15
   9 -13   3 11356.5 550.303  20
   9 -13   4 5742.89 353.884  20
  -9  13  -4 5603.07 289.347  12
  -9  13  -5 8646.69 330.169  12
  -9  13  -5 8003.04 379.909   9
  -9  14   1 4523.17 175.803  12
  -9  14   0 2781.27 147.681  12
  -9  14   0 3868.52 210.514   9
   9 -14   1 13381.9 369.567  20
 -10   0  15 39.6752 38.7895   8
  10   0 -15-13.0693 39.9206  10
 -10   0  14 31948.1 567.666   8
  10   0 -14 31380.5 597.048  10
 -10   0  13-43.4428 79.3984   8
  10   0 -13-84.8043 88.7445  13
  10   0 -13-0.48132 70.4318  10
  10   0 -12 11646.3 442.994  13
 -10   0  12 11273.7 424.634   8
  10   0 -11-75.5717 109.616   9
  10   0 -11-48.2419 94.8567  13
 -10   0  11 1.06534 74.3094   8
 -10   0  10 44831.4 952.270   8
  10   0 -10 46105.7 956.867  13
  10   0 -10 45384.8 929.069   9
  10   0  -9 20.9329 94.7665   9
  10   0  -9-90.6199 103.152  13
 -10   0   9 63.0083 94.4202   8
 -10   0   8 152249. 1872.23   8
  10   0  -8 155806. 1806.42   9
  10   0  -8 151625. 1782.63  13
 -10   0   7 34.9795 94.6259   8
  10   0  -7 32.5139 94.7830  13
  10   0  -6 7434.84 403.461  13
  10   0  -6 7181.59 754.661  18
  10   0  -6 6133.65 637.949   3
 -10   0   6 7444.01 445.679   8
 -10   0   5 62.4447 102.761   8
  10   0  -5-154.805 144.086  18
  10   0  -5-11.6285 96.3781  13
  10   0  -5 207.640 142.389   3
  10   0  -4 121781. 2827.99  18
 -10   0   4 121958. 1967.09   8
  10   0  -4 117312. 2875.76   3
  10   0  -4 126188. 1685.91  13
  10   0  -3-230.023 180.344   3
 -10   0   3-92.8965 162.623   8
  10   0  -2 87948.3 2563.43   3
 -10   0   2 88736.8 1601.22  14
 -10   0   2 89716.6 2632.84   1
 -10   0   1-173.090 323.415   8
 -10   0   1-65.5754 128.674   1
 -10   0   1-50.0408 162.390  14
 -10   0   0 97902.0 2879.17   1
 -10   0   0 89930.0 2358.74  11
 -10   0   0 90635.7 1980.18  14
 -10   0   0 86785.2 2370.39   8
  10   0   0 98389.0 2872.46   3
 -10   0  -1-58.0002 218.554   8
  10   0   1 74.6400 208.948   3
 -10   0  -1 231.707 238.204   1
 -10   0  -1-88.0657 270.357  11
 -10   0  -1-81.7580 227.499  14
 -10   0  -2 243096. 4756.17   1
 -10   0  -2 252664. 3324.56  11
 -10   0  -2 242050. 3988.25  14
 -10   0  -2 252965. 3361.58   8
  10   0   2 256982. 5248.49   3
 -10   0  -3 355.896 212.827   8
 -10   0  -3-569.166 259.427   4
  10   0   3-403.640 321.633   3
 -10   0  -3 219.792 281.006   1
 -10   0  -3 15.5123 140.129  11
 -10   0  -3 132.539 157.867  15
 -10   0  -3 52.4172 224.641  14
 -10   0  -4 181109. 2573.71   8
 -10   0  -4 176885. 2506.20  15
 -10   0  -4 188631. 3022.46  14
 -10   0  -4 177843. 2810.35   6
 -10   0  -4 182873. 2550.97  11
  10   0   4 191117. 5929.57   3
 -10   0  -4 177508. 3829.86   4
 -10   0  -4 176150. 4137.91   1
 -10   0  -5 42.8558 140.259  15
 -10   0  -5 41.1635 154.131  14
 -10   0  -5 400.830 263.670   1
 -10   0  -5 19.0756 184.668   6
 -10   0  -5-15.9254 143.176  11
 -10   0  -5 56.6649 146.351   4
 -10   0  -5-63.6244 146.556   8
 -10   0  -6 731.603 176.405  11
 -10   0  -6 1078.72 201.513   8
 -10   0  -6 884.895 221.601  15
 -10   0  -6 872.497 212.573  14
 -10   0  -7 103.617 105.721  12
 -10   0  -7 78.4189 109.423  11
 -10   0  -7 14.1018 179.803   6
 -10   0  -7 2.69323 128.641  14
 -10   0  -7 93.1987 151.617  15
 -10   0  -7 4.18515 95.4150   8
 -10   0  -8 89354.7 1597.60  12
 -10   0  -8 90363.7 1632.74  11
 -10   0  -8 92223.3 1744.83  14
 -10   0  -8 92937.5 1971.98  15
 -10   0  -9 20.1531 120.935  14
 -10   0  -9-3.56440 136.883  15
 -10   0  -9-112.360 195.682  12
 -10   0  -9-3.88498 101.298  11
 -10   0 -10 53927.7 1168.29  11
 -10   0 -10 53603.4 1330.83  12
 -10   0 -10 54098.1 1212.94  14
 -10   0 -10 57572.9 1412.12  15
 -10   0 -11-27.3566 104.916  14
 -10   0 -11-159.273 213.446  15
 -10   0 -11 10.9408 86.7489  11
 -10   0 -11-252.259 239.552  12
 -10   0 -12 1699.10 194.097  11
 -10   0 -12 1605.62 235.042  12
 -10   0 -12 1947.32 246.237  15
 -10   0 -13 183.492 130.568  15
 -10   0 -13-286.626 201.226  12
 -10   0 -14 46775.2 872.813  15
 -10   0 -14 43189.0 945.001  12
  10   1 -15 41290.2 534.298  10
  10  -1 -15 42151.7 572.958  10
 -10   1  14 228.539 63.0019   8
 -10  -1  14 250.502 67.1435   8
  10   1 -14 111.362 57.4467  13
  10   1 -14 164.352 62.2255  10
  10  -1 -14 167.012 69.1057  10
 -10  -1  13 35913.9 694.853   8
 -10   1  13 35692.7 664.664   8
  10   1 -13 36714.5 705.518  13
  10   1 -13 36147.9 704.901  10
  10  -1 -13 37252.7 732.609  10
  10   1 -12 113.279 83.6897   9
  10   1 -12 226.827 78.5105  13
  10  -1 -12 251.473 86.1252  13
 -10   1  12 178.385 72.7673   8
 -10  -1  12 149.815 74.6875   8
  10   1 -11 4781.85 288.190   9
  10  -1 -11 5028.36 316.855  13
  10   1 -11 5098.94 308.661  13
 -10   1  11 4853.66 298.158   8
 -10  -1  11 5113.65 313.953   8
  10  -1 -10 909.779 154.423  13
  10   1 -10 800.875 142.640  13
 -10   1  10 1246.67 173.938   8
 -10  -1  10 1106.65 169.752   8
  10   1 -10 980.209 151.948   9
 -10   1   9 115622. 1562.32   8
 -10  -1   9 116200. 1599.80   8
  10   1  -9 111927. 1462.29   9
  10  -1  -9 114168. 1571.55  13
  10   1  -9 118898. 1530.92  13
 -10   1   8 2367.39 245.509   8
 -10  -1   8 2107.55 235.543   8
  10   1  -8 2027.56 210.206   9
  10  -1  -8 2392.59 239.161  13
  10   1  -8 1928.11 209.400  13
 -10  -1   7 58851.6 1203.17   8
 -10   1   7 59388.7 1199.54   8
  10  -1  -7 59205.3 1153.16  13
  10   1  -7 61888.7 1114.24  13
  10   1  -7 60573.9 1093.45   9
 -10   1   6 7297.09 438.405   8
 -10  -1   6 7513.93 447.815   8
  10  -1  -6 6260.82 658.998   3
  10   1  -6 7149.62 693.545   3
  10  -1  -6 6933.62 403.677  13
  10   1  -6 7612.91 392.032  13
  10   1  -6 7377.80 765.977  18
 -10   1   5 31267.8 938.992   8
 -10  -1   5 32298.2 958.567   8
  10  -1  -5 30776.2 1464.11   3
  10   1  -5 31434.5 1456.34   3
  10  -1  -5 32547.5 881.414  13
  10   1  -5 32478.0 810.909  13
  10   1  -5 30176.1 1465.86  18
  10   1  -4 323.054 181.839  18
 -10  -1   4 817.404 154.408  14
  10   1  -4 185.228 113.256   3
  10  -1  -4 329.449 143.829   3
 -10   1   4 334.721 124.454   8
 -10  -1   4 554.512 155.626   8
  10  -1  -4 517.894 132.225  13
 -10   1   3 98025.3 1913.01   8
 -10  -1   3 98466.1 1908.03   8
 -10  -1   3 103478. 1643.26  14
  10  -1  -3 98029.2 2713.57   3
  10   1  -3 97856.4 2616.21   3
  10   1  -3 98384.3 2506.09  18
 -10   1   3 103996. 2816.89   1
 -10   1   2 202.480 204.719   8
 -10  -1   2 523.509 186.646   8
 -10  -1   2 537.572 147.919  14
  10   1  -2 210.231 114.751   3
  10  -1  -2 481.307 213.143   3
 -10  -1   1 57353.2 1420.90  14
 -10   1   1 60560.2 2314.77   1
 -10  -1   1 55677.2 1879.03   8
 -10   1   1 54909.3 1932.24   8
  10  -1  -1 59373.8 2235.68   3
  10   1  -1 56864.0 2067.55   3
 -10   1   0 1089.02 301.212   8
 -10  -1   0 452.110 236.795   8
 -10   1   0 260.698 267.837  11
 -10  -1   0 352.131 230.401  11
 -10   1   0 797.536 302.326   1
  10   1   0 571.601 233.991   3
  10  -1   0 777.848 283.662   3
 -10  -1   0 373.515 143.761  14
 -10   1   0 447.442 144.341  14
 -10  -1  -1 33250.2 1404.50  14
 -10   1  -1 37474.9 936.340  15
 -10   1  -1 33884.4 1381.24  14
 -10   1  -1 41015.4 2055.22   1
 -10  -1  -1 39798.6 1803.62   1
 -10   1  -1 38979.0 1425.95  11
 -10  -1  -1 39482.1 1425.54  11
 -10   1  -1 39144.3 1437.51   8
 -10  -1  -1 39798.2 1460.38   8
  10  -1   1 37979.4 1994.60   3
  10   1   1 39622.7 1867.68   3
 -10   1  -2 1991.68 412.130  14
 -10  -1  -2 1398.46 355.728  14
 -10   1  -2 1506.15 230.655  15
 -10   1  -2 1650.51 299.912   8
 -10  -1  -2 1692.61 313.795   8
 -10   1  -2 1907.93 509.377   1
 -10  -1  -2 1574.44 398.473   1
 -10  -1  -2 1571.90 279.896   6
  10   1   2 1403.70 387.623   3
  10  -1   2 774.213 325.679   3
 -10   1  -2 1565.64 285.139  11
 -10  -1  -2 1688.78 300.772  11
 -10   1  -3 433411. 4114.40   8
 -10  -1  -3 429797. 4146.65   8
 -10   1  -3 423778. 3724.50  15
 -10   1  -3 433993. 4926.51  14
 -10  -1  -3 435547. 4942.73  14
 -10  -1  -3 428453. 4092.75   6
 -10   1  -3 429612. 4071.31  11
 -10  -1  -3 438541. 4112.81  11
  10  -1   3 417049. 8118.56   3
  10   1   3 428143. 7029.54   3
 -10   1  -3 423930. 5633.06   4
 -10   1  -3 418189. 6821.92   1
 -10  -1  -3 430988. 6099.81   1
 -10  -1  -4 555.674 177.502  15
 -10   1  -4 236.854 173.852  14
 -10  -1  -4 541.571 221.019  14
 -10   1  -4 282.895 173.883  15
 -10   1  -4 451.459 163.315  11
 -10  -1  -4 374.875 176.229  11
 -10  -1  -4 177.413 159.182   4
 -10   1  -4-251.675 224.277   4
  10  -1   4 539.928 339.110   3
  10   1   4 140.519 264.133   3
 -10   1  -4 581.297 306.990   1
 -10  -1  -4 528.841 257.916   1
 -10  -1  -4 461.805 165.958   6
 -10  -1  -4 261.704 127.154   8
 -10   1  -4 442.405 168.671   8
 -10   1  -5 53904.6 1351.75   8
 -10  -1  -5 52494.2 1349.57   8
 -10   1  -5 54833.1 1625.45  15
 -10  -1  -5 53289.4 1411.65  15
 -10   1  -5 56387.9 1581.69  14
 -10  -1  -5 54895.8 1537.78  14
 -10  -1  -5 53559.6 1412.78   6
 -10   1  -5 53430.5 1335.72  11
 -10  -1  -5 53620.9 1344.48  11
 -10  -1  -5 54357.8 2249.67   4
 -10   1  -5 55871.2 2319.29   4
 -10   1  -5 50639.5 2392.73   1
 -10  -1  -5 52334.3 2200.91   1
 -10   1  -6 772.046 157.373  12
 -10   1  -6 385.156 136.017  11
 -10  -1  -6 497.391 159.937  11
 -10  -1  -6 680.918 176.323   6
 -10  -1  -6 601.549 197.618  15
 -10   1  -6 606.967 226.523  15
 -10   1  -6 699.919 195.871  14
 -10  -1  -6 722.970 207.283  14
 -10   1  -6 571.907 169.868   8
 -10  -1  -6 631.957 168.786   8
 -10  -1  -7 5238.39 458.609   6
 -10   1  -7 5213.92 403.982  12
 -10   1  -7 5601.01 420.585  11
 -10  -1  -7 5395.20 414.188  11
 -10   1  -7 5065.49 441.982  14
 -10  -1  -7 4823.59 425.581  14
 -10   1  -7 5572.24 422.802   8
 -10  -1  -7 5097.65 405.626   8
 -10  -1  -7 5213.32 495.481  15
 -10   1  -7 4847.40 486.393  15
 -10  -1  -8 340.921 171.064   6
 -10  -1  -8 380.510 152.188   8
 -10   1  -8 246.981 170.510  15
 -10  -1  -8 106.178 132.531  14
 -10   1  -8 235.987 118.934  14
 -10  -1  -8 278.802 153.427  15
 -10  -1  -8 330.024 141.033  11
 -10  -1  -8 122.192 119.258  12
 -10   1  -8 434.830 224.583  12
 -10   1  -8 317.892 151.861  11
 -10  -1  -9 56771.4 1529.29   6
 -10  -1  -9 63102.2 1582.82  15
 -10   1  -9 62051.0 1528.08  15
 -10  -1  -9 60502.7 1329.91  14
 -10   1  -9 61866.8 1385.29  14
 -10   1  -9 61163.5 1460.21  12
 -10   1  -9 59738.1 1272.11  11
 -10  -1  -9 60262.4 1282.74  11
 -10  -1  -9 58036.9 1285.34  12
 -10   1 -10 818.411 184.445  14
 -10  -1 -10 468.478 152.712  14
 -10   1 -10 544.897 194.405  15
 -10  -1 -10 302.434 147.026  15
 -10  -1 -10 325.073 164.747  12
 -10   1 -10 397.161 184.245  12
 -10   1 -10 512.393 144.614  11
 -10  -1 -10 525.692 146.697  11
 -10  -1 -11 15410.5 711.386  15
 -10   1 -11 14944.1 668.247  15
 -10  -1 -11 14785.5 583.709  14
 -10   1 -11 14638.9 574.186  11
 -10  -1 -11 15230.4 589.567  11
 -10  -1 -11 14069.6 645.257  12
 -10   1 -11 14510.1 746.079  12
 -10   1 -12 2737.29 240.340  11
 -10  -1 -12 2738.00 240.835  11
 -10  -1 -12 1981.44 251.741  12
 -10   1 -12 2045.35 280.683  12
 -10  -1 -12 2629.20 292.096  15
 -10   1 -12 2534.33 264.510  15
 -10  -1 -13 17109.0 647.509  12
 -10   1 -13 17459.9 687.508  12
 -10  -1 -13 19227.5 664.119  15
 -10   1 -13 18850.4 619.743  15
 -10   1 -14 3135.45 255.461  15
 -10  -1 -14 3884.76 337.155  12
 -10  -2  15 1289.81 102.268   8
  10  -2 -15 1179.99 99.6132  10
 -10   2  14 63951.2 689.462   8
 -10  -2  14 65237.4 821.337   8
  10   2 -14 64613.8 807.370  13
  10   2 -14 63096.7 772.856  10
  10  -2 -14 65248.4 841.678  10
 -10  -2  13 2026.32 175.618   8
 -10   2  13 2203.38 161.540   8
  10   2 -13 2065.47 170.547  13
  10   2 -13 2098.63 171.832  10
  10  -2 -13 2415.90 192.710  10
  10   2 -13 2066.23 161.381   9
 -10  -2  12 8201.91 366.308   8
 -10   2  12 8159.58 340.740   8
  10   2 -12 7981.80 350.892  13
  10   2 -12 7793.65 351.974  10
  10   2 -12 7589.07 329.237   9
 -10  -2  11 3654.34 267.014   8
 -10   2  11 3508.03 248.897   8
  10   2 -11 3684.93 256.934  13
  10   2 -11 3574.39 241.359   9
 -10  -2  10 55916.3 1073.02   8
 -10   2  10 53902.0 1007.87   8
  10  -2 -10 55852.5 1089.50  13
  10   2 -10 55653.7 1011.90  13
  10   2 -10 54540.0 953.564   9
  10   2  -9 180.635 80.5462   9
  10   2  -9 147.188 79.8582  13
  10  -2  -9 127.646 90.1215  13
 -10   2   9 170.424 86.8237   8
 -10  -2   9 281.811 111.861   8
 -10  -2   8 88207.7 1437.35   8
 -10   2   8 90677.4 1409.44   8
  10  -2  -8 89994.1 1447.65  13
  10   2  -8 87541.2 1298.51  13
  10   2  -8 88893.3 1266.60   9
  10   2  -7 8831.54 412.904  13
  10  -2  -7 8506.12 455.198  13
 -10  -2   7 8682.55 469.693   8
 -10   2   7 8864.55 464.942   8
  10  -2  -6 3388.56 297.761  13
  10   2  -6 3594.27 272.776  13
  10   2  -6 3915.36 558.617  18
  10   2  -6 2513.98 400.678   3
  10  -2  -6 3283.99 485.261   3
 -10   2   6 3676.32 316.652   8
 -10  -2   6 3562.95 318.543   8
  10   2  -5-94.1883 137.940  18
 -10   2   5 241.712 121.870   8
 -10  -2   5 630.882 156.127   8
  10   2  -5 520.315 120.079  13
  10  -2  -5 250.210 111.594  13
  10   2  -5 843.591 243.027   3
  10  -2  -5 417.311 179.950   3
  10  -2  -4 65423.3 2254.08   3
  10   2  -4 61698.7 2060.72   3
  10   2  -4 61956.1 2101.20  18
 -10   2   4 63053.2 2184.06   1
 -10   2   4 63326.2 1431.79   8
 -10  -2   4 60422.3 1397.67   8
  10  -2  -4 65755.3 1374.84  13
  10  -2  -3 8531.73 842.371   3
  10   2  -3 8344.27 768.679   3
  10   2  -3 8247.84 762.040  18
 -10   2   3 8244.68 821.565   1
 -10   2   3 7376.86 543.087   8
 -10  -2   3 8180.66 559.537   8
 -10  -2   3 7848.72 467.017  14
  10   2  -2 113993. 2863.94   3
  10  -2  -2 115277. 3160.30   3
  10   2  -2 116963. 2848.29  18
 -10  -2   2 115777. 1874.16  14
 -10   2   2 115435. 3216.02   1
 -10  -2   2 110482. 2269.60   8
 -10   2   2 106750. 2305.40   8
 -10  -2   1 10547.3 626.309  14
  10   2  -1 10752.7 894.798   3
  10  -2  -1 10979.2 1016.88   3
 -10  -2   1 9913.33 803.383   8
 -10   2   1 9867.73 856.656   8
 -10   2   1 11231.9 1070.43   1
 -10   2   0 9517.47 788.268  11
 -10  -2   0 10153.4 792.957  11
 -10   2   0 10133.8 472.117  15
 -10  -2   0 9643.38 666.736  14
  10  -2   0 10895.4 1058.06   3
  10   2   0 10679.7 910.659   3
 -10   2   0 12382.9 903.496   8
 -10  -2   0 10116.9 813.763   8
 -10   2   0 10965.4 1105.71   1
 -10  -2  -1 17004.1 826.429   6
 -10   2  -1 18331.3 975.051  11
 -10  -2  -1 18035.7 955.108  11
 -10   2  -1 18100.9 681.151  15
 -10  -2  -1 16374.9 987.539  14
  10  -2   1 15839.4 1374.96   3
  10   2   1 16348.1 1169.94   3
 -10   2  -1 18273.6 975.881   8
 -10  -2  -1 17573.8 977.309   8
 -10   2  -1 16916.7 1428.70   1
 -10  -2  -2 92405.9 1829.46   6
 -10   2  -2 94349.3 2030.67  11
 -10  -2  -2 92775.0 2005.94  11
 -10   2  -2 92417.0 1657.86  15
 -10   2  -2 94201.9 2500.89  14
 -10  -2  -2 89001.0 2446.31  14
  10  -2   2 89510.3 3599.96   3
  10   2   2 92592.7 2893.14   3
 -10   2  -2 91358.7 2540.08   4
 -10   2  -2 90998.5 2014.83   8
 -10  -2  -2 91159.1 2041.75   8
 -10   2  -2 94018.2 3513.72   1
 -10   2  -3 3358.68 384.016   8
 -10  -2  -3 3240.56 372.413   8
 -10  -2  -3 3444.92 357.089   6
 -10   2  -3 3015.94 365.912  11
 -10  -2  -3 3361.66 378.625  11
 -10   2  -3 2782.64 430.948  14
 -10  -2  -3 2973.69 438.004  14
 -10   2  -3 3439.98 375.159  15
  10   2   3 2599.38 535.059   3
 -10   2  -3 2806.61 467.986   4
  10  -2   3 3322.53 829.874   3
 -10   2  -3 3058.50 694.769   1
 -10   2  -4 77282.2 1660.63   8
 -10  -2  -4 78356.5 1704.14   8
 -10   2  -4 78088.8 1838.38  15
 -10   2  -4 81680.3 2040.55  14
 -10  -2  -4 80579.8 1975.78  14
 -10  -2  -4 79874.1 1636.15   6
 -10   2  -4 79016.3 1668.00  11
 -10  -2  -4 80216.3 1699.07  11
 -10   2  -4 76804.4 1339.25  12
  10  -2   4 81617.1 3991.49   3
  10   2   4 80703.3 3239.85   3
 -10  -2  -4 75082.2 2489.35   4
 -10   2  -4 71617.7 2523.62   4
 -10   2  -4 79648.3 3378.09   1
 -10   2  -5 1276.64 308.855  15
 -10  -2  -5 1675.55 249.481  15
 -10   2  -5 1647.95 295.692  14
 -10  -2  -5 1863.89 303.898  14
 -10   2  -5 1592.33 246.723  11
 -10  -2  -5 1500.45 245.182  11
 -10  -2  -5 1399.33 238.189   6
 -10   2  -5 1459.80 529.448   1
 -10   2  -5 1632.47 233.727  12
 -10  -2  -5 356.465 192.809   4
 -10   2  -5 1496.12 404.727   4
 -10  -2  -5 1668.06 256.261   8
 -10   2  -5 1502.23 237.978   8
 -10   2  -6 106.100 167.269  12
 -10   2  -6 72.7774 104.644  11
 -10  -2  -6 243.849 126.512  11
 -10  -2  -6 579.201 160.129   6
 -10   2  -6 197.535 127.691   8
 -10  -2  -6 710.822 173.385   8
 -10   2  -6 18.6516 181.521  14
 -10  -2  -6 169.293 149.822  14
 -10  -2  -6-51.6238 131.782  15
 -10   2  -6-152.243 221.084  15
 -10   2  -7 93.6697 139.850  12
 -10   2  -7 222.495 117.088  11
 -10  -2  -7 155.839 105.714  11
 -10  -2  -7 150.553 127.304   6
 -10   2  -7 143.508 115.095   8
 -10  -2  -7 8.83746 131.923   8
 -10   2  -7 280.023 155.518  15
 -10   2  -7 58.2968 135.595  14
 -10  -2  -7 374.201 167.738  14
 -10  -2  -7 33.4729 163.460  15
 -10   2  -8 110186. 1983.07  14
 -10  -2  -8 106720. 1823.34  14
 -10   2  -8 106014. 1952.46  12
 -10   2  -8 105230. 1738.48  11
 -10  -2  -8 105852. 1748.46  11
 -10  -2  -8 105587. 1913.67   6
 -10  -2  -8 104317. 1748.92   8
 -10   2  -8 106074. 2094.18  15
 -10  -2  -8 101595. 2100.98  15
 -10   2  -9 330.005 148.304  15
 -10   2  -9 319.436 140.531  14
 -10  -2  -9 361.065 134.792  14
 -10  -2  -9 62.1566 199.918  15
 -10  -2  -9 239.954 131.767   6
 -10   2  -9 231.914 117.299  11
 -10  -2  -9 375.283 126.125  11
 -10  -2  -9 155.266 185.023  12
 -10   2  -9 366.986 205.728  12
 -10  -2 -10 58125.6 1454.85   6
 -10   2 -10 59804.8 1535.17  12
 -10   2 -10 62308.4 1222.61  11
 -10  -2 -10 59311.3 1206.42  11
 -10   2 -10 61376.6 1336.68  14
 -10  -2 -10 59530.3 1222.84  14
 -10   2 -10 60012.6 1386.12  15
 -10  -2 -10 60018.6 1498.49  15
 -10   2 -11 157.393 132.462  15
 -10  -2 -11 160.665 94.1021  14
 -10  -2 -11-37.8073 163.131  15
 -10   2 -11 117.627 94.9909  11
 -10  -2 -11 220.231 109.004  11
 -10  -2 -11-82.3939 175.722  12
 -10   2 -11 196.685 170.761  12
 -10   2 -12-238.471 172.744  15
 -10  -2 -12-87.8132 151.762  12
 -10   2 -12 52.5339 196.646  12
 -10   2 -12 131.394 89.6627  11
 -10  -2 -12 104.983 82.1591  11
 -10   2 -13 4152.69 287.337  15
 -10   2 -13 3715.24 317.346  12
 -10   2 -14 40512.8 730.808  15
 -10   2 -14 39759.9 850.254  12
 -10  -3  15 37995.2 492.483   8
  10  -3 -15 37375.8 478.500  10
 -10  -3  14 36.5020 55.2696   8
  10   3 -14 23.2049 51.2949  13
  10   3 -14 37.7049 40.4723  10
  10  -3 -14 48.4915 50.4483  10
 -10  -3  13 53263.5 825.701   8
  10   3 -13 52377.5 786.190  13
  10  -3 -13 53501.8 835.250  10
  10   3 -13 51066.8 753.068  10
  10   3 -13 50102.7 717.245   9
  10   3 -12 30.9249 79.8558   9
 -10   3  12 63.6107 57.3559   8
 -10  -3  12 168.150 81.5256   8
  10   3 -12 75.5082 64.6190  10
  10  -3 -12 44.6730 76.7089  10
  10   3 -12 123.654 70.6465  13
  10   3 -11 19198.8 554.261  13
 -10  -3  11 19870.1 600.889   8
 -10   3  11 19046.5 531.852   8
  10   3 -11 18823.1 515.064   9
  10   3 -10 1906.95 191.367  13
 -10  -3  10 1872.38 210.235   8
 -10   3  10 2129.72 201.660   8
  10   3 -10 1914.81 185.615   9
  10   3  -9 104452. 1372.52  13
 -10  -3   9 102047. 1502.69   8
  10   3  -9 101675. 1280.04   9
  10   3  -8 2113.11 210.071  13
 -10  -3   8 2324.50 247.496   8
 -10   3   8 2077.34 218.575   8
  10   3  -7 51931.4 981.971  13
 -10  -3   7 49866.8 1125.02   8
 -10   3   7 49686.8 1064.17   8
  10   3  -6 10627.7 447.102  13
 -10   3   6 10126.9 510.312   8
 -10  -3   6 10341.3 531.371   8
 -10   3   5 12482.9 597.752   8
 -10  -3   5 12637.7 609.772   8
  10   3  -5 12824.1 1003.35  18
  10   3  -5 12313.8 937.263   3
  10  -3  -5 13267.1 1040.32   3
  10   3  -5 13114.8 487.473  13
 -10   3   4 327.375 189.579   1
 -10   3   4 286.001 132.487   8
 -10  -3   4 296.978 125.782   8
  10   3  -4-12.4259 51.6007   3
  10  -3  -4 144.219 136.217   3
  10   3  -4 134.861 170.442  18
 -10   3   3 140911. 2379.03   8
 -10  -3   3 145045. 2348.91   8
 -10   3   3 151878. 3644.15   1
  10   3  -3 148404. 3280.63   3
  10  -3  -3 155628. 3743.96   3
  10   3  -3 144496. 3392.06  18
 -10  -3   2 6843.79 477.586  14
 -10  -3   2 6377.22 556.455   8
 -10   3   2 5771.27 570.492   8
 -10   3   2 6342.73 815.435   1
  10  -3  -2 7006.55 830.856   3
  10   3  -2 5890.82 710.882  18
 -10  -3   1 67119.5 1570.42  14
  10   3  -1 65367.7 2229.00   3
  10  -3  -1 67969.4 2679.25   3
 -10   3   1 66752.7 2312.97   8
 -10  -3   1 62223.1 1998.65   8
 -10   3   1 68294.7 2797.42   1
  10   3  -1 64830.9 2341.77  18
  10   3   0 3123.48 503.049   3
  10  -3   0 4064.05 712.169   3
 -10  -3   0 3542.64 393.584   6
 -10   3   0 3323.53 476.277   8
 -10  -3   0 3282.65 459.550  11
 -10  -3   0 2721.27 373.981  14
 -10   3   0 3760.30 723.779   1
 -10  -3   0 3371.63 469.038   8
 -10   3   0 3295.45 461.866  11
  10   3   1 57255.6 2176.21   3
  10  -3   1 52759.0 2714.21   3
 -10  -3  -1 49008.1 1704.94  14
 -10  -3  -1 53999.2 1381.18   6
 -10  -3  -1 53178.2 1626.97  11
 -10   3  -1 55878.1 1696.88  11
 -10   3  -1 56301.8 2924.04   1
 -10   3  -1 54121.2 1668.82   8
 -10  -3  -1 54816.7 1707.52   8
  10   3   2-35.7792 137.963   3
 -10   3  -2 407.086 169.450   4
  10  -3   2 562.874 330.666   3
 -10   3  -2 357.843 120.534  15
 -10  -3  -2 762.912 280.922  14
 -10  -3  -2 471.752 161.303   8
 -10   3  -2 275.363 389.485   1
 -10  -3  -2 522.828 177.730   6
 -10   3  -2 526.376 175.808   8
 -10   3  -2 312.510 134.658  11
 -10  -3  -2 341.891 142.047  11
 -10  -3  -3 136194. 2059.42   6
 -10   3  -3 132240. 2253.62  11
 -10  -3  -3 133456. 2270.68  11
 -10   3  -3 128024. 1738.14  12
 -10   3  -3 133174. 2237.79  15
 -10  -3  -3 128362. 2723.09  14
 -10   3  -3 126714. 3255.34   4
  10  -3   3 134050. 5532.90   3
  10   3   3 132267. 3620.93   3
 -10   3  -3 130221. 2250.78   8
 -10  -3  -3 130825. 2293.04   8
 -10   3  -3 137310. 4811.89   1
 -10   3  -4 9938.13 603.713   8
 -10  -3  -4 10009.2 615.913   8
 -10  -3  -4 9141.30 533.723   6
 -10   3  -4 9500.83 580.697  11
 -10  -3  -4 10663.8 622.886  11
 -10   3  -4 9971.62 521.904  12
 -10   3  -4 10363.3 756.082  14
 -10  -3  -4 10376.5 721.897  14
 -10   3  -4 9734.14 689.533  15
  10  -3   4 9705.14 1328.17   3
  10   3   4 9699.12 1065.85   3
 -10   3  -4 10415.1 988.420   4
 -10   3  -4 9045.99 1258.09   1
 -10  -3  -5 91813.9 1660.06   6
 -10  -3  -5 87046.6 1235.64   7
 -10   3  -5 92451.8 1650.73  12
 -10   3  -5 89717.2 1711.58  11
 -10  -3  -5 90709.1 1730.78  11
 -10   3  -5 88214.3 2225.95  15
 -10   3  -5 94670.1 2154.67  14
 -10  -3  -5 92620.5 1994.63  14
 -10   3  -5 87945.9 1726.14   8
 -10  -3  -5 89573.4 1756.25   8
 -10  -3  -6 629.594 117.629   7
 -10   3  -6 457.479 172.721  12
 -10   3  -6 637.021 169.620  11
 -10  -3  -6 570.547 145.445  11
 -10  -3  -6 712.678 184.197   6
 -10  -3  -6 559.951 169.436   8
 -10   3  -6 694.203 182.228   8
 -10   3  -6 265.351 151.196  14
 -10   3  -6 757.464 239.546  15
 -10  -3  -6 736.234 194.111  14
 -10  -3  -6 489.317 168.198  15
 -10   3  -7 26660.6 988.126  12
 -10   3  -7 26297.2 881.879  11
 -10  -3  -7 25882.2 882.274  11
 -10   3  -7 27873.5 1068.23  14
 -10  -3  -7 26406.8 951.870  14
 -10   3  -7 25650.9 1084.38  15
 -10  -3  -7 25395.0 955.093  15
 -10  -3  -7 26175.1 892.428   6
 -10  -3  -7 25711.4 655.782   7
 -10  -3  -7 26619.7 905.303   8
 -10  -3  -8-42.8026 139.991   6
 -10  -3  -8 31.0996 75.3531   7
 -10   3  -8 154.299 113.491  11
 -10  -3  -8 129.347 129.517  11
 -10   3  -8 73.6439 185.202  12
 -10   3  -8 15.1631 158.391  15
 -10   3  -8-41.8364 144.229  14
 -10  -3  -8 114.545 125.192  14
 -10  -3  -8-69.3582 206.515  15
 -10   3  -9 73359.6 1617.74  15
 -10  -3  -9 68741.6 1679.08  15
 -10  -3  -9 71295.9 1500.68   6
 -10  -3  -9 70615.9 1033.97   7
 -10   3  -9 73226.4 1759.45  12
 -10   3  -9 70616.3 1343.95  11
 -10  -3  -9 73415.2 1374.65  11
 -10   3  -9 71231.9 1566.39  14
 -10  -3  -9 71783.2 1392.76  14
 -10  -3 -10 305.441 134.579   6
 -10  -3 -10 203.911 103.363  14
 -10  -3 -10 435.883 205.901  15
 -10   3 -10 267.997 155.126  15
 -10   3 -10 208.198 108.868  11
 -10  -3 -10 162.901 158.458  12
 -10  -3 -10 130.722 87.7917  11
 -10   3 -10 235.102 175.916  12
 -10  -3 -10 292.847 90.8278   7
 -10  -3 -11 4716.82 314.719  14
 -10   3 -11 4998.50 367.648  15
 -10  -3 -11 5223.48 460.355  15
 -10   3 -11 5267.38 436.594  12
 -10   3 -11 4631.41 313.576  11
 -10  -3 -11 4536.39 312.870  11
 -10  -3 -11 4332.74 395.738  12
 -10  -3 -11 5021.59 411.429   6
 -10   3 -12 5347.10 343.813  15
 -10   3 -12 5931.19 425.170  12
 -10   3 -13 13223.1 566.026  12
 -10   3 -13 12975.8 464.787  15
 -10   3 -14 1447.51 166.502  12
 -10   3 -14 2922.43 198.267  15
  10   4 -14 64156.7 724.644  13
  10  -4 -14 64848.7 732.861  10
 -10  -4  14 65779.3 756.869   8
  10   4 -13 6645.41 270.724  13
  10   4 -13 6013.35 227.508  10
  10   4 -13 6301.96 235.369   9
  10  -4 -13 6619.25 282.278  10
 -10  -4  13 6632.98 284.201   8
  10   4 -12 1869.97 164.409  13
  10   4 -12 1752.99 149.066  10
  10  -4 -12 1920.88 176.036  10
  10   4 -12 1931.30 150.555   9
 -10  -4  12 1904.80 177.434   8
  10   4 -11 1986.45 181.364  13
  10   4 -11 1856.41 162.988   9
 -10  -4  11 2262.47 209.335   8
  10   4 -10 63480.6 1011.38  13
  10   4 -10 63854.2 929.533   9
 -10  -4  10 66095.0 1131.48   8
  10   4  -9 350.052 102.689  13
 -10  -4   9 268.451 111.119   8
 -10  -4   8 95232.7 1481.11   8
  10   4  -8 95379.6 1295.30  13
  10   4  -7 272.215 82.1567  13
 -10  -4   7 347.467 125.309   8
  10   4  -6 8360.00 387.158  13
 -10  -4   6 7912.49 468.971   8
  10   4  -5 13374.3 480.472  13
 -10  -4   5 12887.8 621.716   8
 -10  -4   4 43761.3 1214.10   8
 -10   4   4 47061.5 1974.70   1
  10   4  -4 41610.0 1905.19  18
  10  -4  -4 41611.3 1963.71   3
 -10  -4   3 2063.68 308.447   8
 -10   4   3 2712.20 543.643   1
  10   4  -3 2343.03 451.903  18
  10  -4  -3 2151.74 466.993   3
 -10   4   2 272383. 5547.17   1
 -10  -4   2 271679. 3635.47   8
 -10  -4   2 272933. 2939.65  14
  10   4  -2 282677. 5260.62  18
 -10   4   1 119.932 244.835  11
 -10  -4   1 152.646 189.325  11
 -10  -4   1 25.8023 177.370   6
 -10  -4   1 384.189 236.160   8
 -10   4   1 55.3186 273.074   1
 -10  -4   1 202.312 135.694  14
  10   4  -1 579.714 297.080  18
  10  -4  -1-71.4667 165.996   3
 -10   4   0 1300.49 288.412  11
 -10  -4   0 1086.52 249.125  11
 -10  -4   0 948.589 241.914  14
 -10  -4   0 428.197 180.029   8
 -10  -4   0 758.240 185.765   6
 -10   4   0-10.8874 155.881   1
  10   4   0 408.137 266.490  18
  10  -4   0 750.863 344.576   3
  10  -4   1 12202.3 1425.86   3
 -10   4  -1 10696.4 738.522  11
 -10  -4  -1 11215.0 736.795  11
 -10  -4  -1 10709.1 595.971   6
 -10  -4  -1 9717.20 778.310  14
 -10  -4  -1 10152.3 738.387   8
 -10   4  -1 10211.1 1294.26   1
 -10   4  -2 59567.4 2174.33   4
  10   4   2 63867.6 2380.41   3
  10  -4   2 58917.8 3553.74   3
 -10  -4  -2 57551.6 1993.61  14
 -10   4  -2 63297.5 1445.31  15
 -10  -4  -2 61572.8 1369.04   6
 -10   4  -2 63824.7 1646.36  11
 -10  -4  -2 60220.9 1583.31  11
 -10   4  -2 60506.9 3045.27   1
 -10   4  -2 62096.2 1642.78   8
 -10  -4  -2 60599.7 1658.90   8
 -10   4  -3 362.754 177.460  15
 -10  -4  -3 208.355 206.560  14
 -10   4  -3 61.5268 127.034  11
 -10  -4  -3 208.196 138.908  11
 -10   4  -3 277.466 139.966  12
  10   4   3 30.1142 124.210   3
 -10   4  -3-70.7990 105.238   4
  10  -4   3-422.317 318.704   3
 -10   4  -3-106.472 335.145   1
 -10   4  -3 214.358 138.884   8
 -10  -4  -3 283.211 139.093   8
 -10  -4  -3 136.752 113.222   6
 -10   4  -4 88577.7 1737.89  11
 -10  -4  -4 86299.8 1719.28  11
 -10   4  -4 86670.1 1598.78  12
 -10   4  -4 84771.1 1735.99   8
 -10  -4  -4 86230.4 1779.10   8
 -10   4  -4 86347.9 2066.99  15
 -10  -4  -4 89420.4 2094.10  14
 -10  -4  -4 87403.4 1577.54   6
 -10   4  -5 1247.49 242.149  12
 -10  -4  -5 1196.68 216.370   8
 -10   4  -5 1458.34 243.849   8
 -10  -4  -5 1315.34 214.610   6
 -10   4  -5 910.061 275.599  15
 -10   4  -5 830.684 256.625  14
 -10  -4  -5 1325.14 262.278  14
 -10   4  -5 1225.85 216.037  11
 -10  -4  -5 1337.79 225.359  11
 -10  -4  -6 319.182 108.395   7
 -10   4  -6 300.893 156.264  12
 -10  -4  -6 563.826 160.051   8
 -10  -4  -6 324.295 126.266   6
 -10   4  -6 239.477 111.009  11
 -10  -4  -6 447.893 144.409  11
 -10   4  -6 1091.46 256.499  14
 -10  -4  -6 747.210 191.527  14
 -10   4  -6 465.041 204.266  15
 -10  -4  -6 23.1210 145.221  15
 -10   4  -7 7676.76 569.716  12
 -10   4  -7 7416.56 464.354  11
 -10  -4  -7 7373.63 466.134  11
 -10   4  -7 8571.10 630.936  14
 -10  -4  -7 8081.05 524.226  14
 -10  -4  -7 7586.37 480.874   8
 -10   4  -7 7330.80 592.879  15
 -10  -4  -7 6620.03 446.167  15
 -10  -4  -7 7484.95 469.740   6
 -10  -4  -7 7385.36 366.120   7
 -10   4  -8 100414. 2101.25  12
 -10   4  -8 98711.5 1610.36  11
 -10  -4  -8 100394. 1634.10  11
 -10  -4  -8 100369. 1682.76   6
 -10  -4  -8 98452.1 1294.96   7
 -10   4  -8 100291. 1999.06  15
 -10  -4  -8 99445.1 1769.55  15
 -10  -4  -8 101977. 1716.48  14
 -10  -4  -9 267.125 130.990   6
 -10   4  -9 229.867 118.768  11
 -10  -4  -9 256.468 115.607  11
 -10   4  -9 562.486 203.057  12
 -10   4  -9 440.520 173.289  15
 -10  -4  -9 377.460 137.154  14
 -10  -4  -9 371.437 191.525  15
 -10  -4  -9 511.479 116.791   7
 -10   4 -10 57425.0 1437.11  12
 -10   4 -10 54193.3 1090.29  11
 -10  -4 -10 56682.1 1115.04  11
 -10  -4 -10 56345.0 1278.12   6
 -10  -4 -10 53393.5 889.676   7
 -10   4 -10 58773.6 1289.43  15
 -10  -4 -10 57349.0 1417.87  15
 -10  -4 -10 57257.4 1121.14  14
 -10   4 -11 678.841 189.404  12
 -10   4 -11 366.131 108.974  11
 -10  -4 -11 705.447 138.344  11
 -10  -4 -11 504.373 95.9653   7
 -10  -4 -11 555.125 160.840   6
 -10  -4 -11 539.197 118.398  14
 -10   4 -11 578.165 151.082  15
 -10   4 -12 656.012 171.063  12
 -10   4 -12 510.205 116.090  15
 -10   4 -13 125.061 149.262  12
 -10   4 -13 300.503 85.6015  15
 -10  -5  14 111.305 42.4281   8
  10   5 -14 35.6817 40.4255  13
 -10   5  14 76.0641 40.4523  13
  10  -5 -13 30864.5 535.907  10
  10   5 -13 31828.7 549.768  13
 -10  -5  12 9877.34 363.584   8
  10  -5 -12 10044.1 355.644  10
  10   5 -12 10158.0 345.183  13
 -10  -5  11 16638.3 513.363   8
  10   5 -11 15944.0 465.968  13
  10  -5 -11 15439.1 478.488  10
 -10  -5  10 294.184 107.419   8
  10   5 -10 215.021 81.2976  13
  10   5  -9 95306.3 1231.10  13
 -10  -5   9 96685.8 1402.21   8
 -10  -5   8 432.802 115.507   8
  10   5  -8 358.194 98.7781  13
  10   5  -7 52317.7 941.193  13
 -10  -5   7 52643.9 1132.91   8
  10   5  -6 30177.2 710.729  13
 -10  -5   6 28982.3 879.787   8
  10   5  -5 3445.47 243.034  13
 -10  -5   5 3430.85 329.835   8
 -10  -5   4 15468.8 728.052   8
 -10  -5   3 155943. 2497.56   8
  10   5  -3 148022. 3914.01  18
 -10  -5   2 2028.60 281.943  14
 -10  -5   2 1897.08 321.090   8
 -10   5   2 1168.73 319.154  11
 -10  -5   2 1611.98 332.940  11
 -10   5   2 2180.04 540.150   1
  10   5  -2 1330.28 460.176  18
  10  -5  -2 2730.21 580.525   3
  10   5  -1 35867.1 2203.91  18
 -10  -5   1 37474.1 1211.89   6
 -10   5   1 38170.9 1730.18  11
 -10  -5   1 34896.5 1494.20  11
 -10  -5   1 37950.5 1201.65  14
 -10  -5   1 36103.7 1572.88   8
 -10   5   1 41111.8 2534.36   1
  10  -5  -1 37806.8 2262.49   3
  10   5   0 6198.11 956.110  18
  10  -5   0 4543.84 849.265   3
 -10   5   0 3784.13 500.706  11
 -10  -5   0 4259.74 487.207  11
 -10  -5   0 3995.19 375.903   6
 -10  -5   0 4016.75 442.172  14
 -10  -5   0 4435.02 524.718   8
 -10   5   0 4467.40 870.342   1
  10  -5   1 30811.7 2434.41   3
 -10  -5  -1 29801.7 963.016   6
 -10   5  -1 31233.1 1241.85  11
 -10  -5  -1 31340.1 1205.87  11
 -10   5  -1 28681.0 2053.68   1
 -10  -5  -1 30947.1 1263.90   8
 -10  -5  -1 28566.7 1298.82  14
 -10  -5  -2 1832.18 383.120  14
 -10  -5  -2 1709.99 290.366   8
 -10  -5  -2 1793.71 243.497   6
 -10   5  -2 1654.91 380.157   4
 -10   5  -2 2152.77 315.778  11
 -10  -5  -2 1558.55 273.661  11
 -10  -5  -3 146576. 2012.64   6
 -10   5  -3 142535. 2302.11  11
 -10  -5  -3 144671. 2291.27  11
 -10   5  -3 152500. 2057.30  12
 -10  -5  -3 151696. 2435.52   8
 -10   5  -3 145552. 2455.46  15
 -10  -5  -3 148402. 2907.39  14
 -10   5  -4 443.283 173.941  12
 -10   5  -4 118.807 142.051  11
 -10  -5  -4 95.1512 119.852  11
 -10  -5  -4 152.730 118.609   6
 -10  -5  -4 42.7559 131.838   8
 -10   5  -4 385.846 212.500  15
 -10  -5  -4 32.3914 173.821  14
 -10   5  -5 39718.0 1180.36  12
 -10   5  -5 37249.9 1075.73  11
 -10  -5  -5 37537.2 1076.21  11
 -10  -5  -5 38941.2 1274.01  14
 -10   5  -5 37223.8 1480.54  15
 -10  -5  -5 39179.9 1136.20   8
 -10  -5  -5 40244.9 1042.94   6
 -10   5  -6 7925.40 569.719  12
 -10   5  -6 8507.38 501.942  11
 -10  -5  -6 8380.33 500.779  11
 -10  -5  -6 8893.60 573.870  14
 -10   5  -6 8710.48 683.215  15
 -10  -5  -6 8988.18 531.309   8
 -10  -5  -6 8489.99 487.967   6
 -10  -5  -6 8645.60 415.751   7
 -10   5  -7 18946.4 898.971  12
 -10   5  -7 18233.2 700.984  11
 -10  -5  -7 19121.7 719.886  11
 -10  -5  -7 18214.2 757.100  14
 -10   5  -7 19270.4 933.330  15
 -10  -5  -7 18940.8 729.768   8
 -10  -5  -7 17404.5 580.317   7
 -10  -5  -7 18652.1 709.596   6
 -10   5  -8 2831.87 345.043  15
 -10  -5  -8 2997.56 299.572  14
 -10   5  -8 2925.07 278.488  11
 -10  -5  -8 2683.96 267.341  11
 -10   5  -8 2457.30 367.663  12
 -10  -5  -8 2877.09 293.240   6
 -10  -5  -8 2676.26 236.520   7
 -10  -5  -9 72147.0 1360.34  15
 -10   5  -9 72937.1 1519.15  15
 -10  -5  -9 72422.8 1301.99  14
 -10   5  -9 72669.4 1690.92  12
 -10   5  -9 73596.6 1286.89  11
 -10  -5  -9 71838.0 1276.68  11
 -10  -5  -9 70302.9 1361.57   6
 -10  -5  -9 71162.5 1086.40   7
 -10   5 -10 6715.56 429.746  15
 -10  -5 -10 6599.10 364.324  14
 -10   5 -10 6432.77 368.857  11
 -10  -5 -10 6777.06 375.044  11
 -10   5 -10 6960.95 499.575  12
 -10  -5 -10 6697.18 430.385   6
 -10  -5 -10 6463.37 319.051   7
 -10   5 -11 4911.47 328.993  15
 -10  -5 -11 4665.08 277.920  14
 -10  -5 -11 4713.99 359.603   6
 -10  -5 -11 4318.45 238.235   7
 -10   5 -11 4960.15 393.846  12
 -10   5 -12 1373.50 158.605  15
 -10   5 -12 1614.74 227.709  12
 -10   5 -13 9200.70 323.903  15
 -10   5 -13 9499.65 418.656  12
 -10   6  13 7220.69 261.766  13
  10   6 -13 7237.66 243.087  13
 -10  -6  13 6940.92 235.427   8
 -10  -6  12 9272.26 322.085   8
  10   6 -12 9684.17 314.660  13
  10  -6 -12 8818.80 287.605  10
 -10  -6  11 6363.91 300.105   8
  10   6 -11 6138.65 276.290  13
  10  -6 -11 5963.29 270.335  10
 -10  -6  10 28653.7 685.750   8
  10   6 -10 29611.8 634.276  13
  10  -6 -10 29295.1 644.221  10
 -10  -6   9 1408.54 176.203   8
  10   6  -9 1498.61 159.096  13
 -10  -6   8 98966.1 1431.08   8
  10   6  -8 97578.3 1226.40  13
 -10  -6   7 2230.33 238.153   8
  10   6  -7 2305.48 197.864  13
 -10  -6   6 3066.10 289.492   8
  10   6  -6 3254.03 235.044  13
 -10  -6   5 4222.60 355.858   8
 -10  -6   4 37881.5 1129.18   8
 -10  -6   3 247.115 138.400   8
 -10   6   2 71764.6 2240.34  13
 -10  -6   2 73058.3 1925.74   8
 -10  -6   2 72281.1 1539.73  14
 -10  -6   1 27893.2 1398.95   8
 -10  -6   1 29264.7 1058.94  14
 -10   6   1 29121.8 1433.39  13
 -10  -6   1 27881.2 1032.23   6
 -10  -6   0 691.994 207.792   8
 -10  -6   0 814.133 208.919  14
 -10  -6   0 971.103 208.612   6
 -10  -6  -1 9714.61 545.942   6
 -10  -6  -1 9113.61 674.328   8
 -10  -6  -1 9537.12 760.147  14
 -10  -6  -2 55863.9 1261.77   6
 -10  -6  -2 56872.6 1551.96   8
 -10  -6  -2 53905.5 1899.77  14
 -10  -6  -3 3455.52 318.928   6
 -10  -6  -3 3509.92 376.034   8
 -10   6  -3 3711.65 423.337  15
 -10  -6  -3 3688.97 478.165  14
 -10   6  -4 106843. 1873.51  12
 -10  -6  -4 108454. 2249.42  14
 -10   6  -4 104596. 2327.71  15
 -10  -6  -4 105377. 1663.49   6
 -10  -6  -4 109649. 1920.26   8
 -10  -6  -5 640.136 167.630   6
 -10   6  -5 258.950 210.205  15
 -10  -6  -5 550.170 175.900  14
 -10  -6  -5 671.241 171.676   8
 -10   6  -5 489.863 210.407  12
 -10   6  -6 3333.55 389.728  12
 -10  -6  -6 3715.97 328.990  11
 -10  -6  -6 3925.37 370.878  14
 -10   6  -6 3165.30 429.291  15
 -10  -6  -6 3824.45 325.669   6
 -10  -6  -6 3705.61 331.805   8
 -10   6  -7 21846.4 967.949  15
 -10  -6  -7 21609.6 792.837  14
 -10   6  -7 21966.4 985.218  12
 -10  -6  -7 21914.4 738.468  11
 -10  -6  -7 21767.0 745.938   6
 -10   6  -8 69846.2 1567.45  15
 -10  -6  -8 67964.1 1293.73  14
 -10  -6  -8 67328.7 1230.40  11
 -10   6  -8 68517.4 1724.90  12
 -10  -6  -8 67208.6 1091.23   7
 -10  -6  -8 67373.8 1291.04   6
 -10  -6  -9 718.416 158.749   6
 -10   6  -9 553.236 151.259  15
 -10  -6  -9 588.645 127.635  14
 -10   6  -9 346.480 188.748  12
 -10  -6  -9 769.396 136.147   7
 -10   6 -10 45152.1 1026.09  15
 -10  -6 -10 44366.6 861.576  14
 -10  -6 -10 44444.2 1031.74   6
 -10   6 -10 45707.0 1193.11  12
 -10   6 -11 1657.37 185.112  15
 -10  -6 -11 1459.25 204.415   6
 -10   6 -11 1595.59 240.836  12
 -10   6 -12 169.492 104.347  12
 -10   6 -12 137.995 91.2716  15
 -10  -6 -12 140.732 85.5247   6
 -10   6 -13-105.242 117.435  12
  10   7 -13 17171.2 321.731  13
 -10   7  13 16681.2 332.555  13
  10   7 -12 6444.10 234.329  13
 -10  -7  12 6248.62 223.337   8
 -10   7  12 6288.74 263.939  13
 -10  -7  11 521.188 83.9175   8
  10   7 -11 628.047 92.8090  13
 -10   7  11 547.585 109.142  13
 -10  -7  10 40.4189 61.4868   8
  10   7 -10 125.294 70.0004  13
  10   7  -9 101300. 1144.65  13
 -10  -7   9 101627. 1279.11   8
  10   7  -8 5255.11 277.276  13
 -10  -7   8 5127.33 313.663   8
  10   7  -7 33418.9 697.946  13
 -10  -7   7 33290.7 836.401   8
  10   7  -6 7504.84 336.122  13
 -10  -7   6 7813.00 435.330   8
 -10  -7   5 4149.41 344.868   8
 -10  -7   4 7440.47 497.308   8
 -10   7   4 7339.62 577.607  13
 -10  -7   3 59818.3 1532.21   8
 -10   7   3 56280.5 1741.58  13
 -10   7   2 260.435 188.637  13
 -10  -7   2 615.241 184.413  14
 -10  -7   2 171.779 139.746   8
 -10  -7   1 45044.6 1680.88   8
 -10   7   1 42621.9 1779.13  13
 -10  -7   1 45728.2 1299.86   6
 -10  -7   1 45274.5 1310.50  14
 -10  -7   0 8277.26 526.662   6
 -10  -7   0 7937.00 655.847   8
 -10  -7   0 8375.48 628.738  14
 -10  -7  -1 14463.0 662.602   6
 -10  -7  -1 14536.9 924.376  14
 -10  -7  -1 14527.6 814.068   8
 -10  -7  -2 149.207 215.297  14
 -10  -7  -2 109.657 174.115   8
 -10  -7  -2 12.1515 106.935   6
 -10  -7  -3 153898. 2011.91   6
 -10  -7  -3 158895. 2324.25   8
 -10   7  -3 153519. 2518.90  15
 -10  -7  -3 157201. 2867.41  14
 -10   7  -4 2759.04 333.982  12
 -10   7  -4 2646.70 410.065  15
 -10  -7  -4 2660.51 370.848  14
 -10  -7  -4 2911.95 312.263   8
 -10  -7  -4 3029.80 299.656   6
 -10  -7  -5 13812.0 592.002   6
 -10   7  -5 14288.7 717.199  12
 -10  -7  -5 15015.5 748.484  14
 -10   7  -5 12341.2 844.797  15
  10  -7   5 13432.9 604.344  20
 -10  -7  -5 14147.3 628.975   8
 -10   7  -6 15334.7 865.228  15
 -10  -7  -6 15802.3 699.177  14
 -10  -7  -6 15810.7 625.347   6
 -10   7  -6 15451.7 786.580  12
 -10   7  -7 20462.5 909.106  15
 -10  -7  -7 19858.7 718.467  14
 -10  -7  -7 20431.4 701.138   6
 -10   7  -7 20232.2 924.672  12
 -10   7  -8 3580.03 345.803  15
 -10  -7  -8 3397.42 273.244  14
 -10  -7  -8 3604.22 297.373   6
 -10   7  -8 3272.25 395.034  12
 -10   7  -9 45763.4 1074.09  15
 -10  -7  -9 45544.1 884.743  14
 -10  -7  -9 45966.6 1006.37   6
 -10   7  -9 46924.9 1256.42  12
 -10   7 -10 3459.44 273.130  15
 -10  -7 -10 3260.07 208.092  14
 -10   7 -10 3244.41 323.449  12
 -10  -7 -10 2804.20 261.693   6
 -10   7 -11 16283.1 487.236  15
 -10  -7 -11 15508.7 562.547   6
 -10   7 -11 16266.5 601.941  12
 -10   7 -12 4254.82 276.321  12
 -10   8  12 5864.60 215.034  13
  10   8 -12 5966.56 193.542  13
 -10   8  11 8117.22 309.566  13
  10   8 -11 8040.37 258.404  13
 -10   8  10 21274.5 568.849  13
  10   8 -10 22278.9 468.105  13
 -10  -8  10 21542.0 455.394   8
 -10   8   9 992.698 159.062  13
  10   8  -9 913.045 114.243  13
 -10  -8   9 820.369 114.598   8
 -10   8   8 63925.4 1192.49  13
  10   8  -8 64224.9 879.370  13
 -10  -8   8 63179.9 972.494   8
 -10   8   7 15675.5 644.555  13
  10   8  -7 14786.9 435.896  13
 -10  -8   7 14777.7 512.910   8
 -10   8   6 1525.99 245.011  13
  10   8  -6 1253.75 132.165  13
 -10  -8   6 1313.82 173.648   8
 -10   8   5 1368.06 244.947  13
 -10  -8   5 1075.70 174.483   8
 -10   8   4 33181.1 1180.95  13
 -10   8   3 3123.45 416.178  13
 -10  -8   3 3155.66 315.837  14
 -10   8   2 87632.5 2328.00  13
 -10  -8   2 89930.7 1688.48  14
 -10   8   1 15212.9 1093.63  13
 -10  -8   1 14288.0 727.910  14
 -10   8   0 8360.08 724.187  13
 -10  -8   0 8661.23 622.736  14
 -10  -8   0 8121.05 514.856   6
 -10  -8  -1 15648.8 927.022  14
 -10  -8  -1 16101.8 689.477   6
 -10  -8  -2 75474.7 2082.58  14
 -10  -8  -2 79902.2 1460.83   6
 -10  -8  -3 7855.32 623.007  14
 -10   8  -3 7775.14 574.674  15
 -10  -8  -3 7786.60 455.475   6
 -10  -8  -4 71156.7 1314.97   6
 -10   8  -4 71477.3 1509.94  12
 -10  -8  -4 73474.9 1695.02  14
 -10   8  -4 68027.7 1803.45  15
  10  -8   4 73894.8 1544.00  20
 -10  -8  -5 13880.7 582.626   6
 -10   8  -5 13965.6 688.607  12
 -10   8  -5 13106.6 841.014  15
 -10  -8  -5 13924.2 672.191  14
  10  -8   5 14462.0 627.782  20
 -10  -8  -6 1274.07 188.342   6
 -10   8  -6 1678.45 300.902  15
 -10  -8  -6 1257.76 188.897  14
 -10   8  -6 1271.27 234.038  12
 -10   8  -7 7173.61 512.374  15
 -10  -8  -7 7106.80 402.549   6
 -10   8  -7 6921.98 519.064  12
 -10  -8  -7 7439.51 405.467  14
 -10   8  -8 37341.2 1009.99  15
 -10  -8  -8 38080.2 895.075   6
 -10   8  -8 39134.0 1193.68  12
 -10  -8  -8 38042.9 801.298  14
 -10   8  -9 3048.68 260.337  15
 -10  -8  -9 3198.92 264.294   6
 -10   8  -9 3025.45 310.208  12
 -10   8 -10 29765.7 681.055  15
 -10   8 -10 31204.8 847.086  12
 -10  -8 -10 29955.4 756.756   6
 -10  -8 -11 406.561 108.296   6
 -10   8 -11 400.507 125.538  12
 -10  -9  11 3096.57 152.699  14
  10   9 -11 3111.05 134.227  13
 -10   9  11 3069.99 161.602  13
  10   9 -10 10612.6 281.424  13
 -10   9  10 10755.2 355.699  13
  10   9  -9 62097.0 736.171  13
 -10   9   9 63275.7 978.972  13
  10   9  -8 11893.3 342.272  13
 -10   9   8 11965.3 475.467  13
  10   9  -7 25681.4 516.148  13
 -10   9   7 26864.3 776.602  13
 -10   9   6 24523.5 805.263  13
 -10   9   5 14976.2 685.532  13
 -10  -9   4 2807.14 271.982  14
 -10   9   4 2541.18 326.878  13
 -10  -9   3 80202.0 1433.29  14
 -10   9   3 82681.3 1883.27  13
 -10  -9   2 589.669 169.726  14
 -10   9   2 548.624 209.609  13
 -10  -9   1 37163.1 1121.78  14
 -10   9   1 39380.2 1540.80  13
 -10  -9   0 5339.18 474.196  14
 -10  -9   0 5116.60 408.752   6
 -10   9   0 5353.75 586.589  13
 -10  -9  -1 4785.80 499.668  14
 -10  -9  -1 5239.78 393.836   6
 -10  -9  -2 17420.3 939.561  14
 -10  -9  -2 17588.9 674.324   6
 -10  -9  -3 73440.1 1724.30  14
 -10   9  -3 73862.7 1638.38  15
  10  -9   3 78761.4 1734.54  20
 -10  -9  -3 75501.9 1347.34   6
 -10   9  -4 5421.31 416.455  12
 -10  -9  -4 5785.96 374.431   6
 -10  -9  -4 5844.14 449.108  14
 -10   9  -4 4793.24 473.613  15
  10  -9   4 5999.33 444.061  20
 -10   9  -5 15761.4 689.369  12
 -10  -9  -5 15711.6 593.612   6
 -10   9  -5 16221.5 873.469  15
  10  -9   5 15669.2 647.676  20
 -10  -9  -5 15685.4 650.023  14
 -10   9  -6 7701.93 499.300  12
 -10  -9  -6 7922.58 411.877  14
 -10   9  -6 7908.98 551.944  15
 -10  -9  -6 8257.74 422.436   6
 -10   9  -6 6864.39 468.046   9
 -10   9  -7 17015.6 710.060  15
 -10  -9  -7 16829.5 581.788   6
 -10   9  -7 16156.1 713.358  12
 -10  -9  -8 1335.42 172.991   6
 -10   9  -8 1118.96 216.062  12
 -10   9  -8 946.966 163.780  15
 -10   9  -9 25923.3 645.427  15
 -10   9  -9 27432.5 811.899  12
 -10  -9  -9 25750.8 677.487   6
 -10   9 -10-6.40411 104.555  12
 -10  -9 -10 107.910 83.6602   6
 -10  10  10 18885.2 380.865  13
 -10 -10  10 19426.0 369.969  14
 -10  10   9 860.806 110.801  13
  10  10  -9 736.706 70.9393  13
 -10 -10   9 832.137 100.863  14
 -10  10   8 31667.1 672.225  13
 -10 -10   8 31917.3 609.706  14
  10  10  -8 31279.9 460.023  13
 -10  10   7 21073.6 611.446  13
 -10 -10   7 20012.3 524.957  14
 -10  10   6 362.761 109.091  13
 -10 -10   6 610.377 117.361  14
 -10  10   5 11200.4 533.105  13
 -10 -10   5 11071.5 446.253  14
 -10  10   4 42077.2 1109.23  13
 -10 -10   4 42685.1 919.190  14
 -10  10   3 1487.37 246.536  13
 -10 -10   3 1605.18 207.194  14
 -10  10   2 62676.1 1551.75  13
 -10 -10   2 60541.1 1234.68  14
 -10  10   1 11082.9 698.123  13
 -10 -10   1 10230.4 554.141  14
 -10  10   0 806.816 200.577  13
 -10 -10   0 642.927 171.509  14
 -10 -10  -1 25376.7 1016.46  14
 -10  10  -1 25509.0 1037.00  13
  10 -10   1 26517.0 1193.31  20
 -10 -10  -1 23466.4 782.347   6
 -10 -10  -2 40571.8 981.578   6
 -10 -10  -2 39556.6 1263.91  14
 -10  10  -2 41556.6 1073.89  15
  10 -10   3 3435.15 367.539  20
 -10 -10  -3 3639.48 293.741   6
 -10  10  -3 3596.51 304.669  12
 -10 -10  -3 3295.35 334.129  14
 -10  10  -3 3478.07 341.915  15
  10 -10   4 42551.0 1144.94  20
 -10 -10  -4 40104.7 914.899   6
 -10 -10  -4 41827.3 1022.55  14
 -10  10  -4 41359.3 998.082  12
 -10 -10  -5 12329.4 499.876   6
 -10  10  -5 12728.6 565.626  12
 -10  10  -5 12576.0 707.306  15
  10 -10   5 12156.8 554.737  20
 -10 -10  -6 845.127 143.775   6
 -10  10  -6 607.863 165.694   9
 -10  10  -6 893.700 199.319  15
 -10  10  -7 5275.76 362.532  12
 -10  10  -7 6348.09 386.328  15
 -10 -10  -7 5790.76 326.526   6
 -10  10  -8 22113.3 593.746  15
 -10 -10  -8 21668.4 594.627   6
 -10  10  -8 22136.2 685.475  12
 -10 -10  -9 2895.25 218.588   6
 -10  10  -9 3644.57 260.460  12
 -10  11   8 4800.62 216.041  13
 -10 -11   8 4832.63 199.035  14
 -10  11   7 16986.8 459.466  13
 -10 -11   7 16440.0 405.362  14
  10 -11  -6 19617.7 460.775  20
 -10  11   6 19789.6 550.061  13
 -10 -11   6 19813.1 483.136  14
  10 -11  -5 684.589 115.745  20
 -10  11   5 686.975 128.999  13
 -10 -11   5 806.909 119.181  14
  10 -11  -4 5886.86 340.293  20
 -10  11   4 6092.99 365.401  13
 -10 -11   4 6165.04 313.194  14
 -10  11   3 67882.4 1273.54  13
 -10 -11   3 65549.9 1065.64  14
  10 -11  -2 95.3949 110.913  20
 -10  11   2 213.588 113.818  13
 -10 -11   2 230.190 101.456  14
  10 -11  -1 16897.0 760.120  20
 -10  11   1 16607.8 682.645  13
 -10 -11   1 15728.0 599.301  14
  10 -11   0 10783.3 665.428  20
 -10  11   0 10484.3 539.370  13
 -10 -11   0 10025.6 512.111  14
  10 -11   1 16485.6 904.898  20
 -10  11  -1 14408.6 589.214  13
 -10 -11  -1 15484.1 671.987  14
 -10  11  -1 15524.4 573.085  15
 -10 -11  -2 6056.94 420.846  14
 -10  11  -2 6524.20 393.684  15
  10 -11   2 6215.14 525.198  20
 -10  11  -3 31553.7 752.444  12
  10 -11   3 31385.8 1051.56  20
 -10  11  -4 1000.39 167.429  12
  10 -11   4 1149.65 204.783  20
 -10 -11  -4 1077.50 157.771   6
 -10  11  -4 930.214 182.394  15
 -10  11  -4 636.796 175.280   9
 -10  11  -5 9543.28 421.432  12
 -10 -11  -5 9327.52 403.767   6
  10 -11   5 9861.02 471.381  20
 -10  11  -5 9631.70 539.955  15
 -10 -11  -6 12428.5 446.616   6
 -10  11  -6 12386.8 463.123  12
 -10  11  -6 12900.9 532.820  15
 -10  11  -7 5890.06 302.926  12
 -10 -11  -7 5280.41 279.611   6
 -10  11  -8 3982.06 223.279  12
 -10  12   6 6462.72 244.899  13
  10 -12  -5 13063.2 325.051  20
 -10  12   5 12935.3 383.087  13
 -10 -12   5 12357.9 318.268  14
  10 -12  -4 22005.4 504.224  20
 -10  12   4 22610.1 546.269  13
  10 -12  -3 197.460 90.4043  20
 -10  12   3 341.547 100.649  13
 -10 -12   3 117.958 61.2265  14
 -10  12   2 39600.1 786.883  13
 -10 -12   2 39201.7 686.122  14
 -10  12   1 8664.60 373.297  13
  10 -12  -1 8498.50 426.943  20
  10 -12   0 1157.18 190.399  20
 -10  12   0 1112.73 132.572  13
 -10  12   0 1157.02 147.351  15
 -10  12  -1 8744.36 370.424  15
  10 -12   1 9128.70 500.515  20
 -10  12  -2 35652.5 754.049  15
  10 -12   2 36012.6 1010.08  20
 -10  12  -2 35315.5 683.749  12
  10 -12   3 339.655 131.709  20
 -10  12  -3 370.761 89.7176  12
 -10  12  -3 250.372 109.544   9
 -10  12  -3 458.541 112.807  15
  10 -12   4 26751.5 764.011  20
 -10  12  -4 21724.2 636.279   9
 -10  12  -4 23385.3 618.535  15
 -10  12  -4 24756.1 555.294  12
 -10  12  -5 5226.54 252.165  12
 -10  12  -5 4063.41 231.114   9
 -10  12  -6 632.605 95.5527  12
 -10  13   3 26397.1 417.733  15
  10 -13  -2 1762.01 132.147  20
 -10  13   2 1881.02 126.135  15
  10 -13  -1 11901.5 355.457  20
 -10  13   1 11179.4 307.454  15
  10 -13   0 6644.41 281.748  20
 -10  13   0 6506.02 240.804  15
 -10  13  -1 7188.75 251.325  15
  10 -13   1 7895.38 310.575  20
 -10  13  -2 277.460 66.0994  12
 -10  13  -2 462.627 94.5709   9
  11   0 -14-19.3319 42.9764  10
 -11   0  14-49.5563 45.8368   8
  11   0 -13 25212.2 520.497  10
 -11   0  13 25477.6 505.407   8
 -11   0  12-2.06183 60.3722   8
 -11   0  11 125586. 1398.70   8
  11   0 -11 125004. 1404.75  13
  11   0 -10 57.7539 91.0612  13
 -11   0  10-8.78343 94.3399   8
  11   0  -9 425.467 116.669  13
 -11   0   9 348.282 120.581   8
  11   0  -8-30.2588 97.5780  13
 -11   0   8 11.8390 89.6176   8
 -11   0   7 139196. 1821.22   8
  11   0  -7 137884. 1681.73  13
  11   0  -6-29.6337 103.892  13
 -11   0   6 95.2529 100.005   8
  11   0  -5 83904.0 1347.69  13
 -11   0   5 81628.0 1513.50   8
 -11   0   4-17.2570 119.532   8
  11   0  -3 2504.98 434.324   3
 -11   0   3 2157.54 293.558   8
 -11   0   2-117.399 185.699   8
  11   0  -2 132.238 148.392   3
 -11   0   2 81.1683 103.500  14
 -11   0   1 112271. 2442.22   8
  11   0  -1 120979. 3187.85   3
 -11   0   1 119567. 1891.29  14
 -11   0   1 112931. 2519.62  11
 -11   0   0 33.2650 121.908  14
 -11   0   0-360.212 366.625   8
  11   0   0-582.873 282.860   3
 -11   0   0-209.398 204.893   1
 -11   0  -1 201964. 4226.38   1
 -11   0  -1 192290. 3607.68  11
 -11   0  -1 191743. 2832.52  14
  11   0   1 200129. 4424.36   3
 -11   0  -1 188300. 3670.39   8
 -11   0  -2 13.8335 160.933  14
 -11   0  -2-11.0444 240.425   8
 -11   0  -2-91.5148 227.231  11
  11   0   2 140.466 207.875   3
 -11   0  -2 223.889 211.823   1
 -11   0  -3 265.720 172.830  11
 -11   0  -3 331.060 183.108   8
 -11   0  -3 333.245 122.351  15
 -11   0  -3 243.943 232.949  14
 -11   0  -4 110.236 148.611  11
 -11   0  -4 171.161 187.116  14
 -11   0  -4 43.7983 99.1939  15
 -11   0  -4 56.6447 146.844   8
 -11   0  -5 65357.3 1614.56  11
 -11   0  -5 61262.3 1581.57   8
 -11   0  -5 63332.0 1373.50  15
 -11   0  -5 66308.8 1940.16  14
 -11   0  -6 84.4105 127.601  11
 -11   0  -6-105.731 141.379  15
 -11   0  -6 2.46708 146.376  14
 -11   0  -6-60.7459 127.883   8
 -11   0  -7 42593.1 1195.30  11
 -11   0  -7 42454.4 1250.90  15
 -11   0  -7 44077.7 1383.54  14
 -11   0  -7 40939.0 1194.39   8
 -11   0  -8 180.965 131.684  11
 -11   0  -8-69.9852 101.368  12
 -11   0  -8-55.7380 145.480  14
 -11   0  -8 18.1640 142.364  15
 -11   0  -9-14.6815 159.403  11
 -11   0  -9 102.940 122.695  12
 -11   0  -9 251.181 147.217  14
 -11   0  -9-86.9162 174.875  15
 -11   0 -10-0.20402 97.3734  11
 -11   0 -10-121.696 160.947  12
 -11   0 -10 124.850 124.084  14
 -11   0 -10 32.2483 163.665  15
 -11   0 -11 45275.4 977.941  11
 -11   0 -11 43138.1 899.130  12
 -11   0 -11 46460.8 1164.50  15
 -11   0 -12-169.237 144.269  12
 -11   0 -12 186.264 114.720  11
 -11   0 -12-73.1263 124.439  15
 -11   0 -13 15559.1 536.008  15
  11   1 -14 2377.62 131.265  10
  11  -1 -14 2460.29 140.832  10
 -11  -1  14 2312.77 132.702   8
  11  -1 -13 595.253 94.3628  10
  11   1 -13 738.536 98.3159  10
 -11   1  13 714.628 92.1996   8
 -11  -1  13 763.103 101.177   8
  11   1 -12 54607.9 838.177  10
  11   1 -12 53737.3 834.030  13
 -11   1  12 54502.8 811.648   8
 -11  -1  12 55568.7 856.430   8
  11   1 -11 1077.51 143.444  13
 -11   1  11 1041.94 140.666   8
 -11  -1  11 1193.19 152.932   8
  11   1 -10 55045.6 966.759  13
  11  -1 -10 53429.5 983.093  13
 -11   1  10 53354.6 960.524   8
 -11  -1  10 53604.9 990.246   8
  11   1  -9 5691.98 327.269  13
  11  -1  -9 5656.30 340.073  13
 -11   1   9 5264.27 327.340   8
 -11  -1   9 5420.42 343.169   8
  11  -1  -8 41628.6 928.379  13
  11   1  -8 40797.8 883.097  13
 -11   1   8 40427.6 932.128   8
 -11  -1   8 40868.8 957.402   8
  11  -1  -7 1963.23 216.123  13
  11   1  -7 2121.65 212.992  13
 -11   1   7 1902.88 225.104   8
 -11  -1   7 2024.33 236.811   8
  11   1  -6 113057. 1494.74  13
  11  -1  -6 115998. 1603.78  13
 -11   1   6 115043. 1707.64   8
 -11  -1   6 115200. 1721.75   8
 -11  -1   5 2429.88 230.183  14
  11   1  -5 2288.44 215.533  13
  11  -1  -5 2048.14 228.605  13
 -11   1   5 2253.89 254.552   8
 -11  -1   5 2016.94 251.653   8
 -11  -1   4 20748.3 678.857  14
 -11   1   4 20124.3 798.695   8
 -11  -1   4 19457.2 789.695   8
 -11   1   3 851.938 185.692   8
 -11  -1   3 817.352 195.716   8
  11   1  -3 832.603 253.336   3
 -11  -1   3 762.114 149.197  14
 -11   1   2 25931.9 1058.56   8
 -11  -1   2 25578.7 1048.37   8
 -11   1   2 28155.0 1527.70   1
  11  -1  -2 27321.9 1516.08   3
  11   1  -2 27795.8 1477.86   3
 -11  -1   2 26540.0 854.582  14
 -11  -1   1 253.497 142.775  14
 -11   1   1 63.8086 201.620   8
 -11  -1   1 202.934 169.545   8
 -11   1   1-98.3275 264.935  11
 -11  -1   1-114.096 243.546  11
  11   1  -1-646.193 264.991   3
  11  -1  -1 36.6070 183.955   3
 -11   1   1 270.271 192.627   1
 -11   1   0 123456. 3136.40  11
 -11  -1   0 125097. 3095.45  11
 -11   1   0 126798. 3410.51   1
 -11   1   0 112321. 2864.69   8
 -11  -1   0 112216. 2831.05   8
 -11   1   0 123311. 1991.58  14
 -11  -1   0 123444. 2128.89  14
  11  -1   0 128128. 3505.40   3
  11   1   0 117189. 3184.34   3
 -11   1  -1 16670.7 1084.93  11
 -11  -1  -1 16175.0 1044.89  11
 -11   1  -1 16512.6 1257.28   1
 -11   1  -1 14160.1 1021.36   8
 -11  -1  -1 14286.5 1023.88   8
  11  -1   1 17230.3 1348.47   3
  11   1   1 14797.0 1174.37   3
 -11   1  -1 16182.0 791.423  14
 -11  -1  -1 15190.8 825.947  14
 -11   1  -2 64648.8 1736.90  14
 -11  -1  -2 62760.9 1863.62  14
 -11   1  -2 66135.9 1961.48  11
 -11  -1  -2 67450.2 1962.94  11
 -11   1  -2 68960.2 2602.20   1
 -11   1  -2 64991.8 1986.44   8
 -11  -1  -2 64883.4 1990.59   8
  11  -1   2 67571.8 2852.41   3
  11   1   2 68060.6 2629.55   3
 -11   1  -2 67641.5 1236.30  15
 -11   1  -3 12735.0 808.833  11
 -11  -1  -3 13427.6 827.070  11
 -11   1  -3 13398.7 593.174  15
 -11   1  -3 11527.0 834.183  14
 -11  -1  -3 13297.1 986.186  14
 -11   1  -3 12899.9 827.654   8
 -11  -1  -3 12575.2 822.478   8
 -11   1  -4 46836.2 1441.37  11
 -11  -1  -4 45011.0 1414.74  11
 -11   1  -4 46134.9 1155.52  15
 -11  -1  -4 44650.0 1017.40  15
 -11   1  -4 46082.7 1760.07  14
 -11  -1  -4 45381.9 1710.84  14
 -11   1  -4 44799.0 1432.33   8
 -11  -1  -4 46606.2 1462.89   8
 -11   1  -5 3193.53 377.917  11
 -11  -1  -5 3198.44 376.211  11
 -11   1  -5 3347.68 350.155  15
 -11  -1  -5 2949.09 292.504  15
 -11  -1  -5 3664.63 464.218  14
 -11   1  -5 2709.64 418.170  14
 -11   1  -5 3152.42 371.264   8
 -11  -1  -5 3173.90 379.503   8
 -11   1  -6 100446. 1907.58  11
 -11  -1  -6 101638. 1925.58  11
 -11  -1  -6 99554.0 1930.14   8
 -11   1  -6 100577. 1942.25   8
 -11  -1  -6 100106. 1709.49  15
 -11   1  -6 98457.2 1909.57  15
 -11   1  -6 102400. 2281.66  14
 -11  -1  -6 103019. 2217.56  14
 -11   1  -7 34.4112 114.787  11
 -11  -1  -7 116.081 133.083  11
 -11   1  -7 129.071 103.745  12
 -11   1  -7 93.9823 144.254  15
 -11   1  -7 70.4038 167.700  14
 -11  -1  -7 141.972 143.129  14
 -11  -1  -7-18.3712 144.555  15
 -11   1  -7 229.071 152.789   8
 -11  -1  -7 44.4474 133.818   8
 -11   1  -8 10625.1 483.723  12
 -11   1  -8 11260.4 589.364  11
 -11  -1  -8 11456.0 596.181  11
 -11   1  -8 12401.9 705.558  14
 -11  -1  -8 12134.1 675.470  14
 -11  -1  -8 10779.4 618.089  15
 -11   1  -8 11908.0 728.850  15
 -11   1  -9 59.8821 120.227  14
 -11  -1  -9-17.6193 146.688  14
 -11  -1  -9-32.5736 145.740  15
 -11   1  -9 138.747 151.018  15
 -11   1  -9 44.7650 125.387  11
 -11  -1  -9-13.4895 142.431  11
 -11   1  -9 80.0600 115.040  12
 -11   1 -10 23888.6 759.902  11
 -11  -1 -10 23940.6 762.795  11
 -11   1 -10 22403.9 702.496  12
 -11   1 -10 23811.6 845.457  14
 -11  -1 -10 25495.1 828.850  14
 -11  -1 -10 24108.8 918.758  15
 -11   1 -10 23366.8 889.575  15
 -11  -1 -11 357.786 130.579  14
 -11  -1 -11 1.72134 175.375  15
 -11   1 -11 159.416 128.098  15
 -11   1 -11 197.223 101.026  11
 -11  -1 -11 200.674 102.365  11
 -11  -1 -11-22.4004 149.544  12
 -11   1 -11 38.9520 131.635  12
 -11  -1 -12 62244.9 1203.36  15
 -11   1 -12 62772.7 1198.49  15
 -11  -1 -12 61921.6 1046.25  11
 -11   1 -12 60240.0 1028.45  11
 -11   1 -13 1026.56 184.569  15
 -11   1 -13 7.60225 95.5396  12
  11  -2 -14 1573.04 110.338  10
 -11  -2  14 1755.33 116.184   8
  11   2 -13 43660.0 627.716  10
  11  -2 -13 44451.9 676.802  10
  11   2 -13 44417.0 663.873  13
 -11   2  13 42786.7 551.548   8
 -11  -2  13 45823.4 685.297   8
  11   2 -12 2527.87 179.079  10
  11  -2 -12 2443.47 189.906  10
  11   2 -12 2188.13 174.714  13
 -11   2  12 2497.76 169.204   8
 -11  -2  12 2636.64 194.263   8
  11   2 -11 78690.6 1061.66  13
 -11   2  11 80840.9 1048.01   8
 -11  -2  11 79429.5 1123.39   8
  11   2 -10 4386.46 272.399  13
 -11   2  10 4552.10 278.487   8
 -11  -2  10 4331.78 289.546   8
  11   2  -9 1732.29 184.912  13
 -11   2   9 1363.45 172.865   8
 -11  -2   9 1513.15 194.382   8
  11   2  -8 539.238 112.460  13
 -11  -2   8 615.342 118.479  14
 -11   2   8 597.311 134.755   8
 -11  -2   8 606.183 143.631   8
 -11  -2   7 96399.6 1324.15  14
  11   2  -7 94812.5 1324.39  13
 -11   2   7 92809.6 1447.17   8
 -11  -2   7 91517.1 1486.18   8
  11   2  -6-51.7698 96.3432  13
 -11  -2   6 46.5827 78.2025  14
 -11   2   6-38.7042 137.432   8
 -11  -2   6-40.4009 110.055   8
 -11   2   5 107943. 1718.82   8
 -11  -2   5 104809. 1718.76   8
 -11  -2   5 104348. 1497.75  14
 -11  -2   4 105.496 88.5140  14
 -11   2   4-23.0142 125.828   8
 -11  -2   4-73.6567 135.296   8
 -11  -2   3 6698.53 501.753   8
 -11   2   3 6486.16 492.611   8
 -11  -2   3 6993.34 428.772  14
 -11  -2   2 508.418 126.043  14
 -11   2   2 419.130 151.030   1
 -11   2   2 491.280 169.086   8
 -11  -2   2 190.053 127.907   8
 -11   2   1 58757.7 1853.63  11
 -11  -2   1 62999.9 1878.30  11
 -11   2   1 66036.8 2484.73   1
 -11  -2   1 64225.3 1443.33  14
  11  -2  -1 64476.5 2504.88   3
  11   2  -1 63697.8 2259.74   3
 -11   2   1 58816.0 1794.62   8
 -11  -2   1 62908.9 1823.42   8
 -11   2   0 9161.12 873.930  11
 -11  -2   0 9059.42 842.198  11
 -11   2   0 8829.47 954.353   1
 -11   2   0 9048.18 421.506  15
 -11  -2   0 9401.14 603.402  14
  11  -2   0 8589.84 966.769   3
  11   2   0 8461.61 849.065   3
 -11   2   0 8169.05 805.341   8
 -11  -2   0 8937.57 808.250   8
 -11   2  -1 91352.9 2513.43  11
 -11  -2  -1 90407.4 2429.95  11
 -11   2  -1 99730.9 3251.26   1
 -11   2  -1 84239.9 2469.42   8
 -11  -2  -1 88021.8 2489.78   8
  11  -2   1 93526.3 3321.67   3
  11   2   1 94149.3 2895.32   3
 -11   2  -1 92699.2 1425.98  15
 -11  -2  -1 86315.0 1978.42  14
 -11   2  -2 5485.12 582.479  11
 -11  -2  -2 5576.20 574.085  11
 -11   2  -2 5136.41 365.432  15
 -11   2  -2 5757.58 601.458   8
 -11  -2  -2 5410.75 577.941   8
 -11   2  -2 4849.10 454.280  14
 -11  -2  -2 4344.54 503.058  14
 -11  -2  -3 995.543 239.911   6
 -11   2  -3 1060.60 261.613  11
 -11  -2  -3 917.105 244.877  11
 -11  -2  -3 1224.44 285.173   8
 -11   2  -3 1372.67 284.689   8
 -11   2  -3 1092.21 189.139  15
 -11   2  -3 1834.31 315.225  14
 -11  -2  -3 833.442 335.577  14
 -11  -2  -4 1895.54 319.655   8
 -11   2  -4 1622.91 291.361   8
 -11   2  -4 1875.23 267.112  15
 -11  -2  -4 1595.25 290.106   6
 -11   2  -4 1411.86 275.359  11
 -11  -2  -4 1552.27 279.668  11
 -11   2  -4 1411.44 316.996  14
 -11  -2  -4 1858.97 393.822  14
 -11   2  -5 134762. 2291.95  11
 -11  -2  -5 136486. 2306.88  11
 -11  -2  -5 131978. 2328.18   6
 -11  -2  -5 131546. 1722.59  15
 -11   2  -5 131974. 2184.84  15
 -11   2  -5 137659. 2866.84  14
 -11  -2  -5 134882. 2695.87  14
 -11   2  -5 139838. 2381.89   8
 -11  -2  -5 136808. 2357.41   8
 -11   2  -6 3041.20 268.522  12
 -11   2  -6 2716.58 329.418  11
 -11  -2  -6 2668.73 327.272  11
 -11  -2  -6 2868.39 360.056   6
 -11  -2  -6 2778.78 286.941  15
 -11   2  -6 3650.20 409.523  15
 -11   2  -6 3160.70 436.558  14
 -11  -2  -6 3151.53 423.154  14
 -11  -2  -6 2953.96 349.649   8
 -11   2  -6 3119.00 361.446   8
 -11   2  -7 94594.6 1450.51  12
 -11   2  -7 94387.1 1755.40  11
 -11  -2  -7 95245.2 1782.27  11
 -11  -2  -7 92580.5 1923.28   6
 -11   2  -7 94822.2 2068.09  15
 -11  -2  -7 93368.4 1608.61  15
 -11  -2  -7 96744.9 1812.57   8
 -11   2  -7 98705.5 2147.01  14
 -11  -2  -7 99939.2 2009.45  14
 -11   2  -8 139.792 129.702  11
 -11  -2  -8 188.085 136.523  11
 -11   2  -8 191.629 109.671  12
 -11  -2  -8-104.804 194.272   6
 -11   2  -8-59.8883 186.365  15
 -11   2  -8 79.1806 150.433  14
 -11  -2  -8 42.1784 137.825  14
 -11  -2  -8-21.7493 155.926  15
 -11   2  -9 2430.24 321.571  15
 -11  -2  -9 2901.62 303.807  15
 -11   2  -9 3325.88 365.272  14
 -11  -2  -9 2643.09 299.416  14
 -11   2  -9 2856.20 269.897  12
 -11   2  -9 2439.06 263.774  11
 -11  -2  -9 2419.88 265.478  11
 -11   2 -10 8183.59 521.716  15
 -11  -2 -10 7301.42 472.915  15
 -11  -2 -10 8579.47 472.862  14
 -11   2 -10 8242.25 443.106  11
 -11  -2 -10 8258.92 448.238  11
 -11   2 -10 7298.10 411.978  12
 -11  -2 -11 48116.2 1129.34  15
 -11   2 -11 50940.5 1167.85  15
 -11  -2 -11 50875.3 1034.10  14
 -11   2 -11 50902.1 1016.00  11
 -11  -2 -11 50294.2 1014.48  11
 -11   2 -11 47949.2 982.916  12
 -11   2 -12-97.8601 132.159  15
 -11   2 -12-140.628 135.799  12
 -11   2 -13 15632.1 489.541  15
 -11   2 -13 13429.7 407.284  12
  11  -3 -14 3067.74 137.939  10
 -11  -3  14 3257.09 147.576   8
  11   3 -13 637.612 81.5618  10
  11  -3 -13 737.131 94.9045  10
 -11  -3  13 713.957 96.7604   8
  11   3 -13 602.833 87.5115  13
  11   3 -12 66641.2 829.081  10
  11  -3 -12 68228.5 912.412  10
  11   3 -12 68680.4 877.267  13
  11   3 -11 108.534 71.1120  13
 -11  -3  11 121.117 81.3381   8
 -11   3  10 15955.0 478.230   8
 -11  -3  10 16991.4 553.608   8
  11   3 -10 16344.0 495.304  13
 -11   3   9 6544.72 335.876   8
 -11  -3   9 6925.18 379.709   8
  11   3  -9 6828.97 337.543  13
 -11   3   8 7977.91 392.968   8
 -11  -3   8 8378.26 435.224   8
  11   3  -8 8848.41 391.366  13
  11   3  -7 1009.13 146.707  13
 -11   3   7 849.466 147.451   8
 -11  -3   7 859.058 165.074   8
 -11   3   6 101353. 1546.23   8
 -11  -3   6 104699. 1653.69   8
  11   3  -6 105477. 1361.18  13
 -11   3   5-34.8177 104.569   8
 -11  -3   5-7.59615 114.293   8
 -11  -3   5 119.832 93.9958  14
 -11  -3   4 43899.1 1180.94   8
 -11   3   4 43990.5 1150.82   8
 -11  -3   4 42823.6 1019.34  14
 -11   3   3 403.398 154.678   8
 -11  -3   3-34.6988 139.838   8
 -11  -3   3 156.714 106.138  14
 -11  -3   2 44407.0 1142.69  14
 -11   3   2 41165.0 1328.74   8
 -11  -3   2 42757.5 1363.66   8
 -11   3   1 1684.60 350.855  11
 -11  -3   1 1885.59 347.392  11
 -11   3   1 1799.12 191.723  15
 -11  -3   1 2088.23 276.183  14
 -11   3   1 1586.98 312.928   8
 -11  -3   1 2106.02 349.174   8
 -11  -3   0 96868.9 2592.30   8
 -11   3   0 100069. 1453.68  15
 -11  -3   0 100360. 1961.75  14
 -11   3   0 105435. 2986.97  11
 -11  -3   0 103444. 2788.73  11
 -11  -3  -1 2722.37 448.773   8
 -11   3  -1 2555.24 451.249  11
 -11  -3  -1 2426.99 403.324  11
 -11   3  -1 3038.99 277.371  15
 -11  -3  -1 2910.68 384.911  14
 -11   3  -1 2609.66 452.434   8
 -11  -3  -2 26546.4 1066.12   6
 -11   3  -2 27655.5 1273.41  11
 -11  -3  -2 27839.6 1238.03  11
 -11  -3  -2 23667.1 1162.92  14
 -11   3  -2 26817.7 843.830  15
 -11   3  -2 27256.8 1283.17   8
 -11  -3  -2 26692.3 1255.21   8
 -11  -3  -3 8081.99 580.612   6
 -11   3  -3 8464.58 504.850  15
 -11   3  -3 8268.97 647.837  11
 -11  -3  -3 8635.52 651.345  11
 -11  -3  -3 8130.60 796.174  14
 -11   3  -3 8582.30 674.825   8
 -11  -3  -3 7820.97 643.036   8
 -11  -3  -4 39964.4 1239.77   6
 -11   3  -4 39809.7 1310.88  11
 -11  -3  -4 39785.5 1302.29  11
 -11   3  -4 40502.1 892.883  12
 -11   3  -4 38055.6 1138.95  15
 -11   3  -4 41172.9 1370.79   8
 -11  -3  -4 39467.2 1336.36   8
 -11   3  -4 35630.2 1263.18  14
 -11  -3  -4 39750.5 1570.42  14
 -11   3  -5 622.528 159.257  12
 -11   3  -5 538.019 193.653  11
 -11  -3  -5 402.496 172.087  11
 -11  -3  -5 370.487 179.781   6
 -11   3  -5 626.434 206.290  15
 -11   3  -5 517.295 243.103  14
 -11  -3  -5 436.949 237.077  14
 -11   3  -5 675.478 227.352   8
 -11  -3  -5 210.526 146.416   8
 -11  -3  -6 172051. 2501.69   6
 -11   3  -6 168775. 1956.24  12
 -11   3  -6 175351. 2469.64  11
 -11  -3  -6 175278. 2472.46  11
 -11   3  -6 170067. 2714.26  15
 -11  -3  -6 167745. 1914.01  15
 -11   3  -6 169058. 2507.97   8
 -11  -3  -6 178001. 2545.17   8
 -11   3  -6 173464. 3103.17  14
 -11  -3  -6 177009. 2816.82  14
 -11   3  -7 32.9778 116.962  11
 -11   3  -7 36.9195 136.736  12
 -11  -3  -7 154.311 132.867  11
 -11  -3  -7 69.1055 151.727   6
 -11  -3  -7 187.229 152.489   8
 -11   3  -7 39.2517 179.118  15
 -11   3  -7 99.7309 178.925  14
 -11  -3  -7 217.392 180.448  14
 -11  -3  -7-162.997 165.852  15
 -11   3  -8 22167.3 980.181  15
 -11  -3  -8 21434.8 724.591  15
 -11   3  -8 23934.2 1025.93  14
 -11  -3  -8 22321.3 862.852  14
 -11   3  -8 22542.3 743.951  12
 -11   3  -8 22476.5 808.159  11
 -11  -3  -8 22604.0 813.876  11
 -11  -3  -8 21219.4 869.092   6
 -11   3  -9 4836.30 436.949  15
 -11  -3  -9 4342.93 337.335  15
 -11  -3  -9 4390.22 365.242  14
 -11   3  -9 4761.41 349.367  12
 -11   3  -9 4337.07 340.339  11
 -11  -3  -9 4471.03 349.066  11
 -11  -3  -9 4050.22 394.095   6
 -11   3 -10 41999.5 1135.16  15
 -11  -3 -10 39277.4 957.220  15
 -11  -3 -10 42079.4 995.613  14
 -11   3 -10 41850.0 972.461  12
 -11   3 -10 42040.4 972.885  11
 -11  -3 -10 42281.4 976.738  11
 -11   3 -11 2593.19 262.061  15
 -11  -3 -11 2808.21 242.402  14
 -11   3 -11 2785.90 240.102  11
 -11  -3 -11 2993.78 250.565  11
 -11   3 -11 2369.06 231.376  12
 -11   3 -12 47220.1 954.061  15
 -11   3 -12 43669.5 856.515  12
 -11   3 -13 826.500 128.898  15
 -11  -4  13 44630.9 619.399   8
  11  -4 -13 43676.9 580.699  10
  11   4 -13 42880.8 580.578  13
 -11  -4  12 1052.19 124.088   8
  11   4 -12 932.623 91.4789  10
  11  -4 -12 997.806 113.209  10
  11   4 -12 982.098 110.922  13
 -11  -4  11 54902.0 889.230   8
 -11  -4  11 50952.4 699.305  14
  11   4 -11 53557.8 804.030  13
  11   4 -11 51483.0 741.919  10
 -11  -4  10 585.143 116.707   8
  11   4 -10 565.934 100.236  13
 -11  -4   9 293.717 98.8479   8
  11   4  -9 538.585 103.464  13
  11   4  -8 2148.58 192.058  13
 -11  -4   8 1953.34 219.410   8
  11   4  -7 61821.0 1007.75  13
 -11  -4   7 61663.6 1202.45   8
 -11  -4   6 46.9564 109.760   8
  11   4  -6 242.576 93.4599  13
 -11  -4   5 126578. 1885.97   8
 -11  -4   4 7968.59 450.464  14
 -11  -4   4 8003.39 509.594   8
 -11  -4   3 2493.29 272.488  14
 -11  -4   3 1801.26 272.172   8
 -11   4   2 525.765 205.725  11
 -11  -4   2 861.843 220.023  11
 -11  -4   2 1159.27 213.355  14
 -11  -4   2 1066.70 247.557   8
 -11   4   1 85500.0 2275.69  11
 -11  -4   1 92602.9 2268.93  11
 -11  -4   1 93990.8 1768.08  14
 -11  -4   1 88420.3 2164.83   8
 -11  -4   0 590.663 233.495   8
 -11   4   0 527.046 270.872  11
 -11  -4   0 734.561 259.332  11
 -11  -4   0 699.692 195.893  14
 -11   4   0 345.068 302.148   8
 -11  -4  -1 62340.3 1621.44   6
 -11   4  -1 61553.3 2069.51  11
 -11  -4  -1 61825.0 1950.86  11
 -11   4  -1 65446.2 1263.19  15
 -11  -4  -1 62518.2 1697.47  14
 -11   4  -1 59461.5 2054.73   8
 -11  -4  -1 60128.4 2008.21   8
 -11  -4  -2 62.9801 199.044   8
 -11   4  -2 20.4143 197.125  11
 -11  -4  -2 115.494 167.259  11
 -11  -4  -2 119.897 168.324   6
 -11   4  -2 107.631 245.034   8
 -11   4  -2 268.483 96.3849  15
 -11  -4  -2-165.875 240.414  14
 -11   4  -3 233.470 96.6549  12
 -11   4  -3 5.25819 205.728  11
 -11  -4  -3 30.4705 179.558  11
 -11  -4  -3 513.021 187.584   6
 -11   4  -3 116.251 128.725  15
 -11  -4  -3 206.732 276.159  14
 -11  -4  -3 179.195 172.351   8
 -11   4  -3 532.432 189.942   8
 -11  -4  -4 8991.27 573.960   6
 -11   4  -4 8578.96 556.024  15
 -11   4  -4 8554.73 431.935  12
 -11   4  -4 8634.10 616.670  11
 -11  -4  -4 8173.61 590.971  11
 -11  -4  -4 8080.84 713.422  14
 -11  -4  -4 7931.84 599.930   8
 -11   4  -4 8332.25 625.980   8
 -11  -4  -5 96214.2 1807.08   6
 -11   4  -5 95076.0 1473.28  12
 -11   4  -5 96870.9 1909.42  11
 -11  -4  -5 97155.4 1904.10  11
 -11   4  -5 97317.0 1960.47  15
 -11  -4  -5 94361.8 1926.11   8
 -11   4  -5 92992.9 1950.18   8
 -11  -4  -5 98553.6 2248.45  14
 -11   4  -6 755.616 179.814  12
 -11   4  -6 768.410 202.639  11
 -11  -4  -6 790.793 194.724  11
 -11  -4  -6 683.189 202.718   6
 -11  -4  -6 887.427 230.995   8
 -11   4  -6 796.329 236.530  15
 -11   4  -6 651.473 214.395  14
 -11  -4  -6 881.644 248.210  14
 -11   4  -7 90280.1 1493.53  12
 -11   4  -7 92462.0 1678.96  11
 -11  -4  -7 90006.5 1658.71  11
 -11  -4  -7 92403.1 1841.34  14
 -11   4  -7 90598.7 2097.02  15
 -11  -4  -7 89768.7 1682.02   8
 -11  -4  -7 90127.9 1702.58   6
 -11  -4  -8 9362.90 438.238  15
 -11   4  -8 9165.65 636.340  15
 -11  -4  -8 9389.50 546.995  14
 -11   4  -8 9778.93 502.927  12
 -11   4  -8 9723.16 519.319  11
 -11  -4  -8 9435.84 513.262  11
 -11  -4  -8 9391.36 553.370   6
 -11  -4  -9 7728.55 414.400  15
 -11   4  -9 6559.77 495.117  15
 -11  -4  -9 6545.60 419.058  14
 -11   4  -9 6029.69 398.177  12
 -11   4  -9 6586.65 405.850  11
 -11  -4  -9 6426.04 398.749  11
 -11  -4  -9 6214.05 449.851   6
 -11   4 -10 4520.47 369.491  15
 -11  -4 -10 4643.45 323.055  14
 -11   4 -10 4634.22 337.932  12
 -11   4 -10 4588.38 319.875  11
 -11  -4 -10 4611.13 317.898  11
 -11  -4 -10 4465.32 379.015   6
 -11   4 -11 37063.6 912.449  15
 -11   4 -11 35634.4 838.994  12
 -11  -4 -11 34579.2 769.272  14
 -11   4 -12 281.282 100.848  12
 -11   4 -12 332.181 91.3657  15
 -11   5  13 2229.48 134.992  13
 -11  -5  13 2418.44 132.367   8
  11   5 -13 2091.46 119.822  13
  11  -5 -12 41721.0 593.454  10
 -11  -5  12 43243.5 653.907   8
  11   5 -12 42531.8 610.756  13
  11  -5 -11 2970.08 188.092  10
 -11  -5  11 3280.69 211.513   8
  11   5 -11 2873.04 180.828  13
 -11  -5  10 17381.1 518.736   8
  11   5 -10 16666.4 454.298  13
 -11  -5   9 1422.28 172.402   8
  11   5  -9 1266.10 138.131  13
 -11  -5   8 7495.56 394.438   8
  11   5  -8 7555.16 333.410  13
 -11  -5   7 3820.35 301.661   8
  11   5  -7 3771.27 245.572  13
 -11  -5   6 104058. 1598.64   8
  11   5  -6 100214. 1238.28  13
 -11  -5   5 3657.98 327.719   8
 -11  -5   4 20654.1 799.682   8
 -11  -5   4 21135.7 722.742  14
 -11   5   3 16945.6 796.376  11
 -11  -5   3 17146.0 774.432  11
 -11  -5   3 17429.5 789.040   8
 -11  -5   3 17054.4 682.304  14
 -11   5   2 26099.5 1099.37  11
 -11  -5   2 28432.6 1090.84  11
 -11  -5   2 28739.4 922.698  14
 -11  -5   2 28535.4 1099.58   8
 -11   5   1 486.799 238.630  11
 -11  -5   1 524.834 185.142  11
 -11  -5   1 703.423 178.983  14
 -11  -5   1 833.290 245.447   8
 -11  -5   0 73435.5 1675.62  14
 -11  -5   0 72138.8 2203.66   8
 -11   5   0 77941.1 2559.46  11
 -11  -5   0 73985.1 2235.93  11
 -11  -5  -1 7550.44 559.617   6
 -11   5  -1 8152.44 460.795  15
 -11  -5  -1 7486.23 597.890  14
 -11  -5  -1 7393.42 700.081   8
 -11   5  -1 7271.52 715.800  11
 -11  -5  -1 6885.45 631.342  11
 -11   5  -1 7932.68 383.166  12
 -11  -5  -2 18957.2 833.104   6
 -11   5  -2 21246.9 1094.99  11
 -11  -5  -2 18707.6 965.787  11
 -11   5  -2 20192.7 629.104  12
 -11  -5  -2 20425.2 1063.22   8
 -11  -5  -2 18756.9 1022.24  14
 -11   5  -2 20351.0 755.311  15
 -11   5  -3 189.937 126.319  12
 -11   5  -3 270.629 156.627  11
 -11  -5  -3 219.666 149.728  11
 -11  -5  -3 187.914 133.001   6
 -11  -5  -3-29.4329 178.453   8
 -11   5  -3 124.700 151.040  15
 -11   5  -4 11472.2 514.926  12
 -11   5  -4 11636.0 695.535  11
 -11  -5  -4 11560.9 677.703  11
 -11  -5  -4 11409.4 822.180  14
 -11   5  -4 11305.1 640.254  15
 -11  -5  -4 11262.0 614.263   6
 -11  -5  -4 11581.7 702.010   8
 -11   5  -5 19102.1 673.498  12
 -11   5  -5 17943.2 814.946  11
 -11  -5  -5 18087.8 802.955  11
 -11  -5  -5 18936.5 960.180  14
 -11   5  -5 17852.4 859.723  15
 -11  -5  -5 17839.0 753.309   6
 -11  -5  -5 18377.6 829.880   8
 -11   5  -6 138813. 1837.20  12
 -11   5  -6 146499. 2187.21  11
 -11  -5  -6 138642. 2093.56  11
 -11  -5  -6 143675. 2405.85  14
 -11   5  -6 137014. 2474.65  15
 -11  -5  -6 139095. 2057.08   6
 -11  -5  -6 138494. 2140.78   8
 -11  -5  -7 895.100 205.421   6
 -11   5  -7 586.910 232.191  15
 -11  -5  -7 846.084 214.128  14
 -11   5  -7 481.262 148.276  11
 -11  -5  -7 641.561 151.864  11
 -11   5  -7 759.961 190.787  12
 -11   5  -8 5167.61 466.910  15
 -11  -5  -8 5099.44 389.634  14
 -11  -5  -8 5364.20 403.846   6
 -11   5  -8 6020.90 400.627  12
 -11   5  -8 5252.96 374.455  11
 -11  -5  -8 5452.14 378.626  11
 -11   5  -9 2558.66 312.792  15
 -11  -5  -9 2380.48 247.262  14
 -11  -5  -9 2191.43 263.255   6
 -11   5  -9 2348.86 243.193  11
 -11   5  -9 2334.24 257.659  12
 -11  -5  -9 2210.50 231.129  11
 -11   5 -10 30866.0 888.820  15
 -11  -5 -10 30367.9 752.742  14
 -11   5 -10 31422.7 818.143  12
 -11   5 -10 30492.9 781.526  11
 -11  -5 -10 29728.9 754.067  11
 -11  -5 -10 29269.2 880.129   6
 -11   5 -11 330.981 117.815  15
 -11   5 -11 190.090 103.647  12
 -11   5 -12 28968.4 625.665  12
 -11   5 -12 32550.2 670.392  15
  11   6 -12 53.0463 39.2647  13
 -11   6  12 134.630 56.9592  13
 -11  -6  12 133.807 48.3433   8
 -11  -6  11 51619.3 734.311   8
 -11  -6  11 50021.5 664.943  14
  11   6 -11 51282.4 680.226  13
 -11  -6  10 2676.16 193.922   8
  11  -6 -10 2387.77 164.338  10
  11   6 -10 2536.91 169.336  13
  11   6  -9 1286.72 130.803  13
 -11  -6   9 1219.83 152.547   8
 -11  -6   8 63.6407 97.2554   8
  11   6  -8 176.738 64.8254  13
  11   6  -7 89103.2 1085.68  13
 -11  -6   7 85716.7 1314.81   8
 -11  -6   6-33.7776 108.357   8
 -11  -6   5 49216.7 1124.38   8
 -11  -6   4 12406.0 555.185  14
 -11  -6   4 12551.7 607.130   8
 -11   6   3 166.482 127.156  13
 -11  -6   3 238.629 127.271  14
 -11  -6   3 118.942 107.584   8
 -11  -6   2 16298.3 697.976  14
 -11   6   2 14928.7 790.404  13
 -11  -6   2 15332.4 791.906   8
 -11  -6   1 47373.0 1535.84   8
 -11  -6   1 49676.7 1277.22  14
 -11  -6   0 28.9940 248.108   8
 -11  -6   0 325.701 166.410  14
 -11  -6  -1 59202.1 1482.68   6
 -11  -6  -1 61087.8 1635.89  14
 -11  -6  -1 57826.9 1863.18   8
 -11   6  -2 31.2007 123.545  12
 -11  -6  -2 139.161 174.354   6
 -11   6  -2 86.5546 118.580  15
 -11  -6  -2-56.8094 221.828  14
 -11  -6  -2 14.9376 166.963   8
 -11   6  -3 475.306 111.868  12
 -11  -6  -3 581.769 177.742  11
 -11  -6  -3 357.007 139.954   6
 -11  -6  -3 684.675 206.897   8
 -11   6  -3 560.353 152.201  15
 -11  -6  -3 259.955 269.364  14
 -11  -6  -4 1922.17 283.828  11
 -11   6  -4 1814.87 216.984  12
 -11   6  -4 1996.54 289.711  15
 -11  -6  -4 1346.86 280.016  14
 -11  -6  -4 1737.52 257.468   6
 -11  -6  -4 1691.28 267.302   8
 -11   6  -5 75443.2 1337.72  12
 -11  -6  -5 74176.3 1546.14  11
 -11  -6  -5 74627.9 1829.24  14
 -11   6  -5 75141.4 1716.75  15
 -11  -6  -5 73328.1 1465.96   6
 -11  -6  -5 74166.4 1596.59   8
 -11  -6  -6 332.861 151.494   6
 -11   6  -6 18.6175 201.560  15
 -11  -6  -6 153.453 131.234  14
 -11  -6  -6 420.609 146.785   8
 -11  -6  -6 175.476 113.970  11
 -11   6  -6 76.1737 130.948  12
 -11   6  -7 56323.0 1579.06  15
 -11  -6  -7 58606.0 1342.32  14
 -11   6  -7 57263.5 1170.67  12
 -11  -6  -7 56873.0 1247.17   6
 -11   6  -8 5362.18 454.594  15
 -11  -6  -8 5161.98 370.772  14
 -11   6  -8 5531.91 376.305  12
 -11  -6  -8 5301.89 385.445   6
 -11   6  -9 3312.43 326.867  15
 -11  -6  -9 3374.39 270.461  14
 -11   6  -9 3348.86 282.084  12
 -11  -6  -9 3084.91 296.548   6
 -11  -6 -10 1328.69 156.359  14
 -11   6 -10 1203.45 183.759  15
 -11   6 -10 1219.22 186.160  12
 -11  -6 -10 880.908 169.700   6
 -11   6 -11 39872.9 805.538  15
 -11   6 -11 40633.0 793.057  12
 -11   7  12 28880.6 435.397  13
 -11   7  11 2354.83 159.451  13
 -11  -7  11 2117.39 125.465   8
 -11  -7  11 2256.17 136.151  14
  11   7 -11 2448.31 136.295  13
 -11   7  10 42479.8 743.688  13
 -11  -7  10 41902.8 646.457   8
  11   7 -10 40955.5 597.441  13
 -11   7   9 6895.99 336.535  13
 -11  -7   9 6661.02 294.805   8
  11   7  -9 6426.29 257.278  13
 -11   7   8 27544.3 720.247  13
 -11  -7   8 27928.6 649.746   8
  11   7  -8 27999.1 551.549  13
 -11   7   7 5104.54 341.791  13
 -11  -7   7 5113.02 303.276   8
  11   7  -7 4808.05 240.443  13
 -11   7   6 63456.0 1236.97  13
 -11  -7   6 61021.5 1097.69   8
 -11   7   5 6343.39 426.472  13
 -11  -7   5 6192.41 380.926   8
 -11  -7   5 6499.75 379.302  14
 -11   7   4 8967.05 532.755  13
 -11  -7   4 8326.81 473.411   8
 -11  -7   4 8883.49 460.664  14
 -11   7   3 23188.9 892.764  13
 -11  -7   3 23604.7 853.579   8
 -11  -7   3 23817.1 780.438  14
 -11   7   2 15179.3 761.418  13
 -11  -7   2 15243.0 658.241  14
 -11  -7   2 15585.1 759.421   8
 -11  -7   1 1058.19 219.017  14
 -11  -7   1 709.694 182.924   8
 -11  -7   0 111652. 1990.22  14
 -11  -7   0 110583. 2472.76   8
 -11  -7  -1-32.6263 185.282   6
 -11  -7  -1 188.345 175.714   8
 -11  -7  -1-1.03210 183.960  14
 -11   7  -2 37118.3 869.897  12
 -11  -7  -2 35504.6 1077.51   6
 -11  -7  -2 36465.7 1289.07   8
 -11  -7  -2 37118.1 1353.25  14
 -11   7  -2 37562.6 1014.97  15
 -11   7  -3 11679.6 499.931  12
 -11   7  -3 12085.9 611.411  15
 -11  -7  -3 11598.1 839.245  14
 -11  -7  -3 11173.4 593.337   6
 -11  -7  -3 11284.7 671.808   8
 -11   7  -4 57907.8 1130.79  12
 -11  -7  -4 57555.0 1673.81  14
 -11   7  -4 55529.2 1360.78  15
 -11  -7  -4 56358.4 1274.50   6
 -11  -7  -4 57164.6 1400.75   8
 -11   7  -5 7457.99 418.906  12
 -11  -7  -5 7264.78 546.257  14
 -11   7  -5 7210.44 528.365  15
 -11  -7  -5 7344.66 454.641   6
 -11  -7  -5 7122.90 465.701   8
 -11   7  -6 49218.7 1406.27  15
 -11  -7  -6 52339.6 1307.59  14
 -11   7  -6 52001.0 1082.64  12
 -11  -7  -6 51207.5 1154.84   6
 -11  -7  -7 604.732 155.780   6
 -11   7  -7 739.543 202.185  15
 -11  -7  -7 856.980 168.761  14
 -11   7  -7 653.361 143.976  12
 -11   7  -8 10509.3 588.133  15
 -11  -7  -8 10252.8 467.456  14
 -11  -7  -8 10366.2 501.469   6
 -11   7  -8 11091.0 484.487  12
 -11   7  -9 4474.52 342.440  15
 -11  -7  -9 4425.89 268.972  14
 -11   7  -9 4587.25 305.697  12
 -11  -7  -9 3567.89 294.299   6
 -11   7 -10 13636.0 498.554  15
 -11  -7 -10 12428.5 505.427   6
 -11   7 -10 13637.3 469.857  12
 -11   7 -11-101.118 85.0099  12
 -11   8  11 30974.1 469.680  13
 -11  -8  11 31091.4 420.402  14
 -11   8  10 4224.09 213.522  13
 -11  -8  10 4174.57 194.612  14
  11   8 -10 4153.85 162.537  13
 -11   8   9 3901.00 233.976  13
 -11  -8   9 4166.71 220.855  14
  11   8  -9 3615.33 170.892  13
 -11   8   8 7208.99 346.268  13
 -11  -8   8 7008.53 311.925  14
  11   8  -8 7150.24 250.727  13
 -11  -8   8 6769.37 272.487   8
 -11   8   7 76210.7 1189.69  13
 -11  -8   7 76303.2 1085.11  14
 -11  -8   7 76304.3 1004.20   8
 -11  -8   6 419.396 114.361  14
 -11   8   6 409.719 127.623  13
 -11  -8   6 135.347 69.6108   8
 -11   8   5 58335.4 1187.60  13
 -11  -8   5 60161.9 1079.47  14
 -11  -8   5 58224.2 1033.72   8
 -11   8   4 23278.9 796.155  13
 -11  -8   4 22957.7 701.793  14
 -11  -8   4 22305.0 692.640   8
 -11  -8   3 74.5197 97.2083  14
 -11  -8   3 36.7068 109.330   8
 -11   8   3 149.803 113.909  13
 -11  -8   2 14066.2 605.849  14
 -11   8   2 13236.1 663.170  13
 -11  -8   1 37904.4 1047.80  14
 -11   8   1 36290.7 1120.89  13
 -11  -8   0 1669.90 260.646  14
 -11  -8  -1 65276.4 1562.03  14
 -11  -8  -1 65841.1 1477.43   6
 -11   8  -2 6503.31 370.958  12
 -11  -8  -2 6935.57 557.511  14
 -11   8  -2 7962.53 459.873  15
 -11  -8  -2 6886.26 469.540   6
 -11   8  -3 3421.78 270.096  12
 -11  -8  -3 2812.88 302.837   6
 -11  -8  -3 2862.70 408.183  14
 -11   8  -3 3017.60 304.143  15
 -11  -8  -4 10662.0 540.939   6
 -11   8  -4 10883.6 578.557  15
  11  -8   4 11279.2 631.976  20
 -11   8  -4 10816.4 473.600  12
 -11  -8  -4 10733.8 680.950  14
 -11   8  -5 58659.4 1377.13  15
 -11  -8  -5 62127.6 1258.15   6
 -11  -8  -5 62147.1 1447.34  14
 -11   8  -5 63085.8 1130.14  12
 -11  -8  -6-66.4695 132.836   6
 -11   8  -6 235.462 117.826  12
 -11   8  -6-87.1519 155.534  15
 -11  -8  -6-55.2808 121.564  14
 -11   8  -7 17373.2 780.153  15
 -11  -8  -7 18444.0 644.799   6
 -11   8  -7 18571.3 595.272  12
 -11  -8  -7 18385.2 625.530  14
 -11   8  -8 7290.11 445.495  15
 -11   8  -8 7944.07 377.339  12
 -11  -8  -8 7551.13 343.457  14
 -11  -8  -8 7399.39 401.949   6
 -11   8  -9 1058.06 156.336  15
 -11   8  -9 1148.31 144.817  12
 -11  -8  -9 950.786 156.254   6
 -11   8 -10 8492.12 311.632  12
 -11  -9  10 13172.1 284.667  14
 -11   9  10 13311.6 303.217  13
 -11  -9   9 27814.1 492.795  14
 -11   9   9 27496.2 521.024  13
 -11  -9   8 6997.57 281.682  14
 -11   9   8 6808.05 295.050  13
 -11  -9   7 1311.67 143.808  14
 -11   9   7 1221.04 151.662  13
 -11  -9   6 61499.2 951.062  14
 -11   9   6 61233.7 1035.24  13
 -11  -9   5 5855.77 319.819  14
 -11   9   5 5414.74 333.755  13
 -11  -9   4 11837.1 472.107  14
 -11   9   4 12467.0 531.857  13
 -11  -9   3 9775.48 450.367  14
 -11   9   3 9465.02 487.306  13
 -11  -9   2 21277.5 696.084  14
 -11   9   2 21197.9 747.033  13
 -11  -9   1 15976.8 638.144  14
 -11   9   1 16537.7 668.424  13
 -11  -9   0 52110.5 1213.90  14
 -11   9  -1 3348.12 277.092  15
 -11  -9  -1 2272.00 288.566  14
 -11  -9  -2 24625.4 840.930   6
 -11   9  -2 26379.4 772.352  15
 -11  -9  -2 24238.5 940.701  14
  11  -9   2 27199.9 1203.10  20
 -11   9  -2 24778.6 658.276  12
 -11  -9  -3 22702.1 776.872   6
 -11   9  -3 24793.4 655.245  12
 -11  -9  -3 23510.0 988.665  14
 -11   9  -3 24002.5 761.002  15
  11  -9   3 25146.3 1041.67  20
 -11  -9  -4 18363.2 673.812   6
 -11   9  -4 18572.1 571.163  12
 -11   9  -4 18525.7 690.529  15
 -11  -9  -4 18323.6 793.172  14
  11  -9   4 19309.5 811.735  20
 -11   9  -5 544.101 128.223  12
  11  -9   5 520.949 142.394  20
 -11  -9  -5 220.995 106.595   6
 -11   9  -5 338.900 119.134   9
 -11   9  -5 230.947 135.948  15
 -11  -9  -5 561.505 144.322  14
 -11   9  -6 38525.3 1022.68  15
 -11  -9  -6 37121.2 896.423   6
 -11  -9  -6 39109.6 883.345  14
 -11   9  -6 40306.9 810.257  12
 -11  -9  -7-44.7848 119.807   6
 -11   9  -7-21.8096 124.983  15
 -11   9  -7-106.395 127.534  12
 -11   9  -8 3086.03 257.263  15
 -11  -9  -8 2860.01 238.955   6
 -11   9  -8 3264.22 211.842  12
 -11   9  -9 3504.11 194.503  12
 -11  10   8 9917.71 292.901  13
 -11 -10   8 10409.9 287.194  14
  11 -10  -7 28240.3 460.811  20
 -11  10   7 29634.8 568.321  13
 -11 -10   7 29778.2 539.768  14
  11 -10  -6 4249.21 224.798  20
 -11  10   6 3883.46 232.013  13
 -11 -10   6 4323.95 229.673  14
 -11  10   5 39659.3 773.460  13
 -11 -10   5 40131.0 723.756  14
 -11  10   4 5581.75 310.848  13
 -11 -10   4 5564.29 294.599  14
 -11  10   3 1407.44 175.106  13
 -11 -10   3 1055.44 148.199  14
 -11  10   2 11337.1 468.100  13
 -11 -10   2 11649.9 464.559  14
 -11  10   1 37120.6 828.731  13
 -11 -10   1 36341.8 854.435  14
  11 -10   0 3845.44 370.026  20
 -11 -10   0 3341.73 285.103  14
 -11  10   0 4121.90 272.539  15
  11 -10   1 34115.8 1117.12  20
 -11 -10  -1 31870.5 884.399  14
 -11  10  -1 34402.1 778.637  15
 -11  10  -1 32877.0 667.293  12
  11 -10   2 11818.6 688.975  20
 -11 -10  -2 11125.9 548.327  14
 -11  10  -2 11991.6 476.448  15
 -11  10  -2 11409.8 403.275  12
  11 -10   3 204.217 156.298  20
 -11  10  -3 357.955 113.603  15
 -11 -10  -3 459.383 145.979  14
 -11  10  -3 548.451 113.299  12
 -11 -10  -4 7038.68 412.391  14
 -11 -10  -4 5947.86 367.717   6
 -11  10  -4 6649.89 374.465  15
  11 -10   4 6945.46 477.556  20
 -11  10  -4 6842.84 314.281  12
 -11  10  -5 34135.7 824.713  15
 -11  10  -5 35147.5 681.288  12
 -11 -10  -5 32914.8 809.931   6
 -11 -10  -6-30.8333 103.450   6
 -11  10  -6 56.4531 89.9462  15
 -11  10  -6 130.755 81.1902  12
 -11  10  -7 25324.6 631.406  15
 -11  10  -7 26381.1 522.439  12
 -11 -11   6 35401.6 513.914  14
 -11  11   6 36353.5 543.739  13
 -11 -11   5 4080.39 195.799  14
  11 -11  -5 3899.14 191.991  20
 -11  11   5 4013.52 202.196  13
 -11 -11   4 13795.5 379.312  14
  11 -11  -4 13751.4 405.545  20
 -11  11   4 13723.9 390.420  13
 -11 -11   3 9148.91 327.580  14
  11 -11  -3 9825.87 379.601  20
 -11  11   3 9194.77 330.934  13
 -11 -11   2 22235.9 533.778  14
 -11  11   2 22284.6 512.372  13
 -11  11   1 3069.18 202.403  15
 -11 -11   1 3083.33 215.370  14
  11 -11  -1 2864.36 245.764  20
 -11  11   1 2814.74 180.063  13
 -11 -11   0 63199.8 955.970  14
 -11  11   0 63304.8 904.622  15
  11 -11   0 64135.8 1159.57  20
 -11  11  -1 2490.21 172.252  12
  11 -11   1 2456.76 250.320  20
 -11 -11  -1 2338.60 192.739  14
 -11  11  -1 2808.33 204.148  15
 -11  11  -2 6418.95 305.961  15
  11 -11   2 6210.98 383.861  20
 -11  11  -2 5981.25 261.798  12
 -11  11  -3 13702.3 442.347  15
  11 -11   3 14479.3 546.120  20
 -11  11  -3 13594.3 378.916  12
 -11  11  -4 2848.60 206.684  15
  11 -11   4 2715.15 206.823  20
 -11  11  -4 2853.63 178.217  12
 -11  11  -5 4093.99 197.047  12
 -11  11  -5 3988.08 225.014  15
 -11  12   3 229.346 54.1364  15
  11 -12  -3 202.359 53.7073  20
 -11  12   2 8923.46 260.546  15
  11 -12  -2 9697.81 306.116  20
 -11  12   1 33636.8 523.126  15
  11 -12  -1 34919.0 612.793  20
  11 -12   0 995.479 117.556  20
 -11  12   0 949.660 102.738  15
 -11  12  -1 13733.7 348.844  15
  11 -12   1 14269.2 406.192  20
 -11  12  -2 6505.00 237.621  15
  11 -12   2 7073.01 270.497  20
  12   0 -13-24.1499 38.2458  10
  12   0 -12 5031.78 223.781  10
 -12   0  12 5110.31 220.755   8
 -12   0  11 11.2163 65.0314   8
 -12   0  10 50085.4 860.603   8
 -12   0   9 111.707 96.8422   8
  12   0  -8 53070.5 952.932  13
 -12   0   8 51648.9 1002.80   8
 -12   0   7-13.4307 103.040   8
  12   0  -7-0.75790 80.8399  13
 -12   0   6 5097.25 356.801   8
 -12   0   5-57.6428 130.653   8
 -12   0   4 106795. 1757.73   8
 -12   0   3 83.6128 148.097   8
 -12   0   2 99096.2 1471.02  14
 -12   0   2 95710.4 1889.70   8
 -12   0   2 96645.9 1954.76  11
 -12   0   1-70.8886 165.760  11
 -12   0   1-8.02587 154.830   8
 -12   0   1 47.4634 85.2978  14
 -12   0   0 13648.9 620.033  14
 -12   0   0 11985.7 799.221   8
 -12   0   0 12719.6 853.915  11
 -12   0  -1-204.992 315.330  11
 -12   0  -1-362.551 342.587   8
 -12   0  -1 79.4163 120.013  14
 -12   0  -2 104179. 1925.60  14
 -12   0  -2 105124. 2761.28  11
 -12   0  -2 101299. 2804.40   8
 -12   0  -3-35.4954 232.070  11
 -12   0  -3-81.3944 132.101  14
 -12   0  -3-69.6398 233.162   8
 -12   0  -4 56965.8 1054.67  15
 -12   0  -4 56103.7 1606.33  14
 -12   0  -4 57035.8 1748.37  11
 -12   0  -4 57238.8 1794.80   8
 -12   0  -5 10.8554 181.982  11
 -12   0  -5-21.0197 99.0614  15
 -12   0  -5-25.6604 203.282  14
 -12   0  -5-104.569 190.024   8
 -12   0  -6 5711.56 362.855  15
 -12   0  -6 6453.65 633.050  14
 -12   0  -6 6235.37 519.132  11
 -12   0  -6 6049.91 527.629   8
 -12   0  -7 21.0774 165.597  14
 -12   0  -7-62.4046 113.128  15
 -12   0  -7 5.74584 136.395  11
 -12   0  -8 48727.7 1057.16  15
 -12   0  -8 52185.8 1468.44  14
 -12   0  -8 51394.7 1276.88  11
 -12   0  -9 88.8036 140.665  14
 -12   0  -9-31.7332 115.070  15
 -12   0  -9-84.6225 137.049  11
 -12   0 -10 73544.9 1211.42  15
 -12   0 -10 75811.8 1329.24  11
 -12   0 -11-69.8454 103.334  15
 -12   0 -11 72.9639 92.6013  11
 -12   0 -12 11228.1 372.721  15
  12   1 -13 10530.0 253.549  10
  12  -1 -13 10819.6 273.732  10
 -12  -1  13 10779.7 265.659   8
 -12   1  12 251.988 57.6780   8
 -12  -1  12 343.653 67.7036   8
  12   1 -12 363.641 67.4429  10
  12  -1 -12 355.105 67.6986  10
 -12   1  11 22314.8 501.847   8
 -12  -1  11 23615.4 544.135   8
 -12   1  10 3500.01 227.850   8
 -12  -1  10 3970.76 253.396   8
  12   1 -10 3700.52 231.228  13
 -12   1   9 143031. 1531.85   8
 -12  -1   9 146665. 1606.69   8
  12   1  -9 145809. 1482.75  13
 -12   1   8 3257.04 255.914   8
 -12  -1   8 3224.11 264.901   8
  12   1  -8 3472.96 247.098  13
 -12   1   7 18476.3 629.425   8
 -12  -1   7 19244.2 655.354   8
  12   1  -7 18742.4 570.859  13
  12   1  -6-8.90502 92.7772  13
 -12   1   6 53.4157 99.7276   8
 -12  -1   6 175.514 97.9263   8
 -12   1   5 27864.6 845.679   8
 -12  -1   5 27802.1 861.543   8
 -12  -1   4 4396.41 369.404   8
 -12   1   4 4802.81 383.115   8
 -12  -1   4 4591.91 306.987  14
 -12   1   3 120118. 1973.31   8
 -12  -1   3 118970. 1596.71  14
 -12   1   2 265.270 169.557  11
 -12  -1   2 466.612 170.499  11
 -12   1   2 66.9715 120.349   8
 -12  -1   2 303.745 170.703   8
 -12  -1   2 158.715 99.2352  14
 -12  -1   1 10782.8 540.149  14
 -12   1   1 10934.4 696.416   8
 -12  -1   1 11472.8 716.559   8
 -12   1   1 11545.4 744.922  11
 -12  -1   1 11674.3 747.396  11
 -12   1   0 1899.37 352.500  11
 -12  -1   0 2089.81 355.024  11
 -12   1   0 1856.42 318.504   8
 -12  -1   0 2056.51 357.384   8
 -12   1   0 2626.13 261.222  14
 -12  -1   0 2456.09 281.872  14
 -12   1  -1 29960.5 916.413  14
 -12  -1  -1 29376.9 995.155  14
 -12   1  -1 28766.3 1441.11  11
 -12  -1  -1 29468.0 1443.75  11
 -12   1  -1 27027.5 1325.64   8
 -12  -1  -1 26651.4 1327.27   8
 -12   1  -2-28.2289 279.263  11
 -12  -1  -2-134.472 277.444  11
 -12   1  -2 115.449 88.9915  15
 -12   1  -2 57.5040 106.570  14
 -12  -1  -2 115.757 144.912  14
 -12  -1  -2 135.645 238.550   8
 -12   1  -2-118.907 349.332   8
 -12   1  -3 87637.6 1321.29  15
 -12   1  -3 81695.0 1712.77  14
 -12  -1  -3 84182.6 1920.04  14
 -12   1  -3 88064.4 2343.82  11
 -12  -1  -3 90195.5 2340.50  11
 -12   1  -3 82217.2 2335.61   8
 -12  -1  -3 79934.6 2281.39   8
 -12   1  -4 8581.15 439.434  15
 -12   1  -4 7998.56 575.776  14
 -12  -1  -4 7775.03 635.614  14
 -12  -1  -4 8780.30 690.769  11
 -12   1  -4 8344.80 680.528  11
 -12   1  -4 7605.30 666.417   8
 -12  -1  -4 8251.71 690.057   8
 -12  -1  -5 3747.93 270.823  15
 -12   1  -5 3930.03 313.000  15
 -12   1  -5 4111.51 444.331  14
 -12  -1  -5 3951.55 500.898  14
 -12   1  -5 3462.88 416.844  11
 -12  -1  -5 3713.48 434.760  11
 -12  -1  -5 3788.06 449.937   8
 -12   1  -5 3975.52 460.931   8
 -12   1  -6 1151.78 252.713  11
 -12  -1  -6 769.477 220.218  11
 -12   1  -6 941.073 176.991  15
 -12   1  -6 718.597 231.421  14
 -12  -1  -6 840.664 250.271  14
 -12  -1  -6 894.207 148.002  15
 -12   1  -6 869.879 232.082   8
 -12  -1  -6 788.304 238.880   8
 -12   1  -7 41372.6 1010.22  15
 -12  -1  -7 39684.4 899.062  15
 -12   1  -7 43786.8 1503.06  14
 -12  -1  -7 41733.0 1405.60  14
 -12  -1  -7 40403.7 1228.29   8
 -12   1  -7 40291.6 1212.08  11
 -12  -1  -7 42867.1 1252.68  11
 -12   1  -8 286.919 174.528  14
 -12  -1  -8 415.731 176.786  14
 -12  -1  -8 83.6273 100.872  15
 -12   1  -8 210.461 113.054  15
 -12   1  -8 229.314 132.358  11
 -12  -1  -8 405.683 157.630  11
 -12  -1  -9 66338.5 1141.83  15
 -12   1  -9 68276.0 1281.60  15
 -12   1  -9 72744.3 1616.53  14
 -12  -1  -9 73623.1 1551.43  14
 -12   1  -9 70846.5 1383.95  11
 -12  -1  -9 70476.9 1379.23  11
 -12   1  -9 64059.9 928.123  12
 -12  -1 -10 1019.92 195.415  14
 -12  -1 -10 1063.97 156.799  15
 -12   1 -10 729.663 157.383  15
 -12   1 -10 845.522 163.954  11
 -12  -1 -10 943.574 170.032  11
 -12   1 -10 358.565 99.3335  12
 -12   1 -11 2900.03 245.524  11
 -12  -1 -11 3116.62 253.643  11
 -12  -1 -11 3226.13 236.046  15
 -12   1 -11 2771.87 236.120  15
 -12   1 -12 1483.83 165.153  15
  12  -2 -13 11.6573 32.2305  10
 -12  -2  13-49.8910 44.0848   8
  12   2 -12-36.7779 53.9895  10
  12  -2 -12-17.2724 62.6935  10
 -12  -2  12-18.4700 65.6242   8
  12   2 -11 3120.40 190.126  13
 -12  -2  11 3248.98 207.734   8
 -12   2  11 3299.30 183.151   8
  12   2 -10 48569.8 787.186  13
 -12   2  10 47515.1 768.852   8
 -12  -2  10 48854.1 853.976   8
  12   2  -9 155.786 75.6668  13
 -12   2   9 35.2025 83.6954   8
 -12  -2   9 87.4543 86.9273   8
  12   2  -8 59473.3 955.662  13
 -12   2   8 58814.7 1013.85   8
 -12  -2   8 59650.8 1086.86   8
  12   2  -7 1866.78 181.826  13
 -12   2   7 1924.70 204.983   8
 -12  -2   7 1767.51 213.484   8
  12   2  -6 4730.08 285.265  13
 -12  -2   6 4500.56 281.132  14
 -12  -2   6 4720.67 345.781   8
 -12   2   6 4530.68 321.844   8
 -12  -2   5 3565.32 264.804  14
 -12  -2   5 3598.51 317.148   8
 -12   2   5 3846.53 318.098   8
 -12  -2   4 86086.5 1330.37  14
 -12  -2   4 84824.8 1573.54   8
 -12   2   4 83184.9 1508.30   8
 -12  -2   3 3641.62 293.671  14
 -12   2   3 3636.15 352.206   8
 -12  -2   3 3795.87 373.679   8
 -12  -2   2 64353.4 1269.17  14
 -12   2   2 65398.6 1605.63  11
 -12  -2   2 67800.8 1612.22  11
 -12   2   2 64328.0 1516.81   8
 -12  -2   2 64394.1 1543.03   8
 -12  -2   1 8874.63 501.492  14
 -12   2   1 9054.04 661.571  11
 -12  -2   1 9016.00 645.887  11
 -12   2   1 8297.87 596.802   8
 -12  -2   1 8479.71 619.553   8
 -12  -2   0 4313.57 374.084  14
 -12   2   0 2984.99 405.323   8
 -12  -2   0 2955.91 413.725   8
 -12   2   0 3496.35 474.876  11
 -12  -2   0 3715.57 467.425  11
 -12   2  -1 309.538 101.457  15
 -12  -2  -1 489.269 183.794  14
 -12   2  -1 30.9651 272.606  11
 -12  -2  -1 195.755 211.507  11
 -12  -2  -1 69.3709 257.270   8
 -12   2  -1-115.658 295.177   8
 -12   2  -2 59988.4 1089.06  15
 -12   2  -2 62681.5 1289.73  14
 -12  -2  -2 60631.0 1558.80  14
 -12   2  -2 63273.8 2171.56  11
 -12  -2  -2 61979.4 2076.37  11
 -12   2  -2 60246.2 2188.31   8
 -12  -2  -2 61385.6 2133.63   8
 -12   2  -3 2791.03 302.869  14
 -12  -2  -3 2398.57 356.943  14
 -12   2  -3 2283.33 233.842  15
 -12   2  -3 1988.29 376.381  11
 -12  -2  -3 2544.11 399.385  11
 -12   2  -3 1974.26 380.840   8
 -12  -2  -3 1765.79 354.812   8
 -12   2  -4 93947.7 1476.85  15
 -12   2  -4 88518.9 1714.44  14
 -12  -2  -4 87708.5 2148.32  14
 -12   2  -4 91616.1 2210.08  11
 -12  -2  -4 91998.1 2181.25  11
 -12   2  -4 84924.9 2213.47   8
 -12  -2  -4 88146.2 2196.95   8
 -12   2  -5 2215.54 258.108  15
 -12   2  -5 2512.46 322.566  14
 -12  -2  -5 2420.86 420.149  14
 -12   2  -5 2712.21 381.639  11
 -12  -2  -5 2578.83 366.727  11
 -12  -2  -5 2500.26 372.779   8
 -12   2  -5 2662.66 389.939   8
 -12   2  -6 810.894 217.925  11
 -12  -2  -6 887.280 218.752  11
 -12   2  -6 1404.47 287.091   8
 -12  -2  -6 885.418 236.055   8
 -12   2  -6 1072.86 190.564  15
 -12   2  -6 1165.17 240.146  14
 -12  -2  -6 1092.95 293.676  14
 -12  -2  -6 701.472 113.613  15
 -12   2  -7 215.409 140.591  15
 -12   2  -7 282.213 162.390  14
 -12  -2  -7-11.2948 186.192  14
 -12  -2  -7-25.1385 112.429  15
 -12   2  -7 95.8274 128.600  11
 -12   2  -7 68.0721 78.6188  12
 -12  -2  -7 5.29484 125.161  11
 -12  -2  -7 283.402 157.515   8
 -12   2  -8 63242.3 1296.64  15
 -12  -2  -8 61587.0 1035.90  15
 -12   2  -8 61712.5 1539.66  14
 -12  -2  -8 66587.3 1578.10  14
 -12   2  -8 68260.8 1451.34  11
 -12  -2  -8 64121.3 1405.21  11
 -12   2  -8 61684.1 945.954  12
 -12   2  -9 6103.57 403.467  15
 -12  -2  -9 5834.83 317.166  15
 -12  -2  -9 6401.42 454.427  14
 -12   2  -9 5463.73 392.518  11
 -12  -2  -9 6015.80 408.301  11
 -12   2  -9 5378.51 280.772  12
 -12  -2 -10 27013.8 630.869  15
 -12   2 -10 28294.6 811.694  15
 -12  -2 -10 27761.8 833.938  14
 -12   2 -10 28914.7 808.860  11
 -12  -2 -10 29407.5 813.733  11
 -12   2 -10 26000.9 572.474  12
 -12   2 -11 3820.92 276.444  11
 -12  -2 -11 3474.12 262.117  11
 -12   2 -11 3633.14 279.909  15
 -12   2 -12 6318.48 291.301  15
  12   3 -12 254.736 47.4142  10
  12  -3 -12 199.013 55.6082  10
 -12  -3  12 249.948 63.1105   8
  12   3 -11 36235.5 570.244  10
  12   3 -11 37000.9 601.165  13
  12   3 -10 605.347 98.1488  13
 -12  -3  10 745.612 116.131   8
 -12  -3   9 95065.0 1268.00   8
 -12   3   9 92956.0 1084.14   8
  12   3  -9 92854.1 1100.01  13
 -12  -3   8 931.551 156.648   8
 -12   3   8 1074.83 141.196   8
 -12  -3   8 992.572 125.370  14
  12   3  -8 1231.67 141.895  13
 -12   3   7 52696.4 966.452   8
 -12  -3   7 50670.2 894.908  14
  12   3  -7 52255.2 881.248  13
 -12   3   6 55.6503 79.2137   8
 -12  -3   6 36.7236 110.936   8
 -12  -3   6-17.5934 79.6736  14
 -12  -3   5 35512.7 966.697   8
 -12   3   5 34762.3 890.220   8
 -12  -3   5 36118.3 838.882  14
 -12   3   4 784.196 172.325   8
 -12  -3   4 613.644 178.409   8
 -12  -3   4 583.846 139.979  14
 -12  -3   3 117327. 1654.21  14
 -12   3   3 116609. 1832.73   8
 -12  -3   3 122383. 1980.39   8
 -12   3   3 116682. 1965.90  11
 -12  -3   3 122007. 1977.66  11
 -12  -3   2 1319.11 198.341  14
 -12   3   2 1542.23 262.844  11
 -12  -3   2 1353.09 249.310  11
 -12   3   2 1437.34 232.206   8
 -12  -3   2 1858.56 285.491   8
 -12  -3   1 7297.79 459.680  14
 -12   3   1 7932.28 605.384  11
 -12  -3   1 7269.85 568.976  11
 -12   3   1 6387.38 512.219   8
 -12  -3   1 7451.51 569.670   8
 -12  -3   0 2862.24 399.943  11
 -12  -3   0 2688.73 308.060  14
 -12   3   0 2798.26 229.885  15
 -12   3   0 2546.08 395.587  11
 -12   3   0 1988.92 307.280   8
 -12  -3   0 2908.99 397.186   8
 -12   3  -1 55399.5 1035.80  15
 -12  -3  -1 53801.5 1387.13  14
 -12   3  -1 52369.5 1903.52  11
 -12  -3  -1 55288.0 1880.51  11
 -12   3  -1 48508.9 1657.79   8
 -12  -3  -1 50779.6 1784.44   8
 -12   3  -2 249.199 236.375  11
 -12  -3  -2 222.260 223.777  11
 -12   3  -2 569.789 128.531  15
 -12  -3  -2 482.755 185.548  14
 -12   3  -2 201.032 245.665   8
 -12  -3  -2 370.090 213.998   8
 -12   3  -3 42676.2 987.436  15
 -12  -3  -3 40166.8 1370.94  14
 -12   3  -3 39374.7 1565.77  11
 -12  -3  -3 41996.9 1550.90  11
 -12   3  -3 38220.4 1614.01   8
 -12  -3  -3 38977.3 1551.14   8
 -12   3  -4 1336.08 299.576  11
 -12  -3  -4 1383.17 287.982  11
 -12   3  -4 1565.86 215.705  15
 -12   3  -4 1804.45 235.824  14
 -12  -3  -4 1598.06 340.330  14
 -12   3  -4 1489.14 322.971   8
 -12  -3  -4 1557.50 313.573   8
 -12   3  -5 34674.6 947.937  15
 -12   3  -5 33579.3 961.033  14
 -12  -3  -5 36415.4 1501.69  14
 -12   3  -5 34448.8 1255.49  11
 -12  -3  -5 34200.7 1227.75  11
 -12  -3  -5 33755.4 1255.66   8
 -12   3  -5 31961.4 1266.30   8
 -12   3  -6 1453.11 167.706  12
 -12   3  -6 1075.61 198.693  14
 -12  -3  -6 1380.04 321.891  14
 -12   3  -6 1562.70 236.659  15
 -12   3  -6 1420.90 273.976  11
 -12  -3  -6 1589.36 280.127  11
 -12  -3  -6 1427.07 278.695   8
 -12   3  -7 52303.9 1206.81  15
 -12   3  -7 48074.1 1176.48  14
 -12  -3  -7 55527.5 1534.02  14
 -12   3  -7 50301.9 877.065  12
 -12   3  -7 55448.2 1380.17  11
 -12  -3  -7 54521.4 1355.51  11
 -12   3  -8 2699.64 290.658  15
 -12  -3  -8 2421.11 198.160  15
 -12  -3  -8 3024.72 347.945  14
 -12   3  -8 2825.62 216.444  12
 -12   3  -8 2736.25 300.050  11
 -12  -3  -8 2854.96 303.122  11
 -12   3  -9 53488.3 1178.11  15
 -12  -3  -9 54026.8 1237.96  14
 -12   3  -9 54805.1 1187.77  11
 -12  -3  -9 54393.3 1171.38  11
 -12   3  -9 51330.6 841.299  12
 -12  -3 -10-5.87888 93.1555  14
 -12   3 -10-199.773 140.779  15
 -12   3 -10-100.284 99.8590  12
 -12   3 -10 28.1898 91.3932  11
 -12  -3 -10-56.7411 92.6887  11
 -12   3 -11 1251.25 115.881  12
 -12   3 -11 1877.51 196.631  15
  12  -4 -12 525.238 66.1517  10
 -12  -4  12 515.498 71.3122   8
 -12  -4  11 830.744 109.410   8
  12  -4 -11 673.791 89.2075  10
  12   4 -11 737.964 88.7547  13
  12   4 -10 26735.9 524.191  13
 -12  -4  10 26754.0 465.258  14
 -12  -4   9 37.1543 56.7962  14
  12   4  -9 25.9109 63.7243  13
 -12  -4   9 20.9603 88.3906   8
 -12  -4   8 55093.1 871.365  14
  12   4  -8 56037.9 841.588  13
 -12  -4   8 57204.8 1020.63   8
 -12  -4   7 7755.29 354.277  14
  12   4  -7 8162.60 331.915  13
 -12  -4   7 8569.08 425.224   8
 -12  -4   6 218.351 89.5989  14
 -12  -4   6 204.677 109.649   8
 -12  -4   5 5896.46 392.717   8
 -12  -4   5 5896.13 350.590  14
 -12  -4   4 154142. 2075.61   8
 -12  -4   4 153100. 1804.06  14
 -12   4   4 150449. 2044.84  11
 -12  -4   4 148205. 1994.02  11
 -12   4   3-47.8260 112.024  11
 -12  -4   3-41.4417 104.312  11
 -12  -4   3 7.41915 93.1929  14
 -12  -4   3 120.177 142.469   8
 -12  -4   2 42068.3 1227.39   8
 -12   4   2 41892.0 1240.72  11
 -12  -4   2 40462.8 1191.87  11
 -12   4   2 40489.2 798.183  15
 -12  -4   2 39300.7 1002.12  14
 -12  -4   1 3765.05 407.343   8
 -12   4   1 3735.18 420.587  11
 -12  -4   1 4036.67 418.694  11
 -12   4   1 3514.35 255.200  15
 -12  -4   1 4158.85 353.915  14
 -12   4   0 19196.1 880.145   8
 -12  -4   0 20513.8 1010.78   8
 -12   4   0 20550.1 622.285  15
 -12  -4   0 20858.3 809.335  14
 -12   4   0 17429.4 961.107  11
 -12  -4   0 20428.5 1002.36  11
 -12  -4  -1 2725.52 422.329   8
 -12   4  -1 2431.99 422.770  11
 -12  -4  -1 2658.33 407.374  11
 -12   4  -1 2448.13 354.541   8
 -12  -4  -1 2983.22 336.731  14
 -12   4  -1 3169.40 261.082  15
 -12   4  -2 86933.5 1372.12  15
 -12  -4  -2 83928.0 1835.32  14
 -12  -4  -2 81182.9 2346.81   8
 -12   4  -2 87568.5 2539.75  11
 -12  -4  -2 85199.9 2318.78  11
 -12   4  -3 5828.01 375.115  15
 -12  -4  -3 5457.99 517.254  14
 -12  -4  -3 5316.65 561.355   8
 -12   4  -3 5207.67 597.151   8
 -12   4  -3 4949.99 560.193  11
 -12  -4  -3 4738.25 524.057  11
 -12   4  -4 60358.9 1219.76  15
 -12  -4  -4 54229.5 1689.43  14
 -12  -4  -4 57855.6 1712.91   8
 -12   4  -4 54714.5 1775.47   8
 -12   4  -4 56396.1 913.662  12
 -12   4  -4 58890.5 1746.37  11
 -12  -4  -4 59851.0 1679.14  11
 -12   4  -5 10791.8 412.563  12
 -12   4  -5 11702.0 734.698  11
 -12  -4  -5 11545.5 698.104  11
 -12  -4  -5 12414.2 868.601  14
 -12   4  -5 11220.7 546.743  15
 -12  -4  -5 9976.84 641.239   6
 -12  -4  -5 12193.7 739.720   8
 -12  -4  -6 473.444 186.231   6
 -12   4  -6 680.199 175.806  15
 -12  -4  -6 475.556 195.239  14
 -12  -4  -6 1010.31 224.144  11
 -12   4  -6 393.889 179.985  11
 -12   4  -6 531.599 115.004  12
 -12  -4  -6 556.790 185.815   8
 -12   4  -7 199.133 138.962  11
 -12  -4  -7 61.7286 135.769  11
 -12   4  -7 148.163 102.027  12
 -12   4  -7 261.636 135.670  15
 -12  -4  -7 176.784 159.543  14
 -12   4  -8 92445.7 1159.35  12
 -12   4  -8 96806.5 1672.86  11
 -12  -4  -8 97459.2 1632.09  11
 -12  -4  -8 96344.7 1747.99  14
 -12   4  -8 93915.3 1597.43  15
 -12   4  -9-105.445 125.947  11
 -12  -4  -9 59.6606 99.0876  11
 -12   4  -9 6.80012 81.7731  12
 -12  -4  -9 1.07406 100.125  14
 -12   4  -9 111.347 117.062  15
 -12   4 -10 15754.2 423.438  12
 -12   4 -10 16546.7 582.406  11
 -12  -4 -10 15916.0 549.226  11
 -12   4 -10 16528.0 608.611  15
 -12  -4 -10 16535.9 575.453  14
 -12   4 -11 218.482 88.4452  15
 -12   5  12 881.312 81.2677  13
  12  -5 -11 15762.4 330.224  10
  12   5 -11 16094.4 333.911  13
  12  -5 -10 398.322 71.9559  10
 -12   5  10 141.787 47.5860  11
 -12  -5  10 201.882 54.2514  11
 -12  -5  10 386.101 67.8116  14
  12   5 -10 240.083 55.0861  13
 -12  -5  10 359.406 80.2035   8
 -12  -5   9 74523.7 895.880  14
  12   5  -9 73512.4 858.062  13
 -12  -5   9 75746.7 1035.33   8
 -12  -5   8-14.9897 88.5492  14
  12   5  -8-4.96079 56.4114  13
 -12  -5   8-76.1271 91.9370   8
 -12  -5   7 27616.9 721.700   8
 -12  -5   7 27170.1 652.457  14
 -12  -5   6 6299.03 371.578   8
 -12   5   6 6389.90 354.064  11
 -12  -5   6 6005.66 340.268  11
 -12  -5   6 6551.59 343.733  14
 -12  -5   5 33836.2 890.993   8
 -12   5   5 32615.0 850.241  11
 -12  -5   5 32890.8 835.045  11
 -12  -5   5 33286.9 800.850  14
 -12  -5   4 1791.05 235.267   8
 -12   5   4 1610.98 219.514  11
 -12  -5   4 1651.30 218.983  11
 -12  -5   4 1718.23 206.309  14
 -12  -5   3 85057.6 1580.97   8
 -12  -5   3 82878.6 1502.35  11
 -12   5   3 82559.0 1534.42  11
 -12  -5   3 84533.0 1390.03  14
 -12  -5   2 17806.7 778.702   8
 -12   5   2 17194.2 531.784  15
 -12  -5   2 18121.3 679.775  14
 -12   5   2 17426.7 763.073  11
 -12  -5   2 18029.8 755.831  11
 -12   5   1 895.673 200.119  11
 -12  -5   1 1345.47 231.875  11
 -12  -5   1 1070.65 197.342  14
 -12   5   1 1007.06 148.122  15
 -12  -5   1 999.630 222.626   8
 -12   5   0 5007.48 487.252  11
 -12  -5   0 4763.65 459.842  11
 -12  -5   0 4901.12 396.183  14
 -12   5   0 5066.51 317.218  15
 -12  -5   0 4796.37 475.631   8
 -12   5  -1 31324.1 1328.21  11
 -12  -5  -1 34246.2 1307.42  11
 -12  -5  -1 33121.2 1348.86   8
 -12  -5  -1 33867.8 1076.79  14
 -12   5  -1 34025.4 834.315  15
 -12  -5  -2 2631.94 428.496   8
 -12   5  -2 2673.30 254.068  15
 -12   5  -2 2095.45 402.742  11
 -12  -5  -2 2883.80 432.308  11
 -12  -5  -2 2854.18 352.668  14
 -12   5  -3 71799.9 1027.94  12
 -12   5  -3 74832.1 2104.68  11
 -12  -5  -3 71090.5 1880.63  11
 -12   5  -3 75575.4 1318.88  15
 -12  -5  -3 73875.1 1794.94  14
 -12   5  -4 68.4922 97.6589  12
 -12   5  -4 162.163 184.587  11
 -12  -5  -4 186.503 152.067  11
 -12  -5  -4 166.538 169.154   6
 -12  -5  -4-116.989 203.904   8
 -12   5  -4 82.9922 130.866  15
 -12  -5  -4 124.880 192.190  14
 -12   5  -5 4863.97 282.150  12
 -12   5  -5 5195.50 479.973  11
 -12  -5  -5 4758.79 437.653  11
 -12  -5  -5 4732.62 522.049  14
 -12   5  -5 4836.91 362.609  15
 -12  -5  -5 4578.34 445.735   8
 -12  -5  -5 4282.95 404.474   6
 -12   5  -6 15391.5 489.389  12
 -12   5  -6 15656.6 766.350  11
 -12  -5  -6 15185.0 716.025  11
 -12  -5  -6 16405.8 851.284  14
 -12   5  -6 16355.5 661.879  15
 -12  -5  -6 15221.6 736.146   8
 -12  -5  -6 14746.7 709.538   6
 -12   5  -7 54665.6 1206.01  15
 -12  -5  -7 55895.8 1407.28  14
 -12   5  -7 53740.5 897.109  12
 -12   5  -7 53780.6 1312.19  11
 -12  -5  -7 53721.3 1240.31  11
 -12  -5  -7 52573.6 1286.61   6
 -12   5  -8 158.997 141.233  15
 -12  -5  -8 98.6851 129.896  14
 -12   5  -8-9.35126 145.426  11
 -12  -5  -8-57.5056 123.662  11
 -12   5  -8 187.907 101.711  12
 -12   5  -9 60156.9 1184.64  15
 -12  -5  -9 61940.9 1173.41  14
 -12  -5  -9 58985.8 1067.21  11
 -12   5  -9 57947.3 841.465  12
 -12   5  -9 57808.6 1120.54  11
 -12   5 -10 1378.94 180.747  15
 -12  -5 -10 1250.87 153.421  14
 -12   5 -10 1381.53 129.162  12
 -12   5 -11 778.328 108.918  15
 -12   6  11 78.5603 38.8625  13
 -12  -6  10 35069.2 563.292   8
 -12   6  10 34259.2 595.952  13
 -12  -6  10 34590.6 506.279  14
  12   6 -10 33416.8 469.087  13
  12  -6  -9 9.29591 50.4901  10
 -12  -6   9-66.8572 67.1917  14
  12   6  -9-54.3227 53.7763  13
 -12   6   9 62.9544 66.2032  13
 -12  -6   9 77.6762 61.4158   8
 -12   6   8 28806.5 654.598  13
 -12  -6   8 27905.6 623.691   8
 -12  -6   8 27615.8 587.675  14
 -12   6   7 2402.69 211.330  13
 -12  -6   7 2301.76 202.560   8
 -12  -6   7 2347.70 195.327  14
 -12  -6   6 508.853 114.372  14
 -12   6   6 676.288 135.055  13
 -12  -6   6 648.698 130.390   8
 -12  -6   5 15875.8 576.779   8
 -12  -6   5 14992.5 530.459  14
 -12   6   5 14934.4 554.514  13
 -12  -6   4 82754.8 1393.07   8
 -12   6   4 80405.9 1323.74  13
 -12  -6   4 83489.0 1290.96  14
 -12  -6   3 680.382 154.004  14
 -12  -6   3 429.999 111.878  11
 -12   6   3 777.658 154.452  13
 -12  -6   3 599.195 153.182   8
 -12  -6   2 34377.3 1022.07   8
 -12  -6   2 33703.6 937.585  11
 -12  -6   2 32614.9 890.103  14
 -12  -6   1 10302.1 606.178   8
 -12   6   1 9818.24 410.093  15
 -12  -6   1 9815.01 514.741  14
 -12  -6   1 9471.28 531.728  11
 -12   6   0 220.604 94.0958  15
 -12  -6   0 272.412 135.003  14
 -12  -6   0-7.50185 163.488   8
 -12  -6   0 205.739 115.629  11
 -12  -6  -1 125.759 129.597  11
 -12   6  -1 248.415 103.614  15
 -12  -6  -1 102.942 131.301  14
 -12  -6  -1-187.259 229.913   8
 -12  -6  -2 103553. 1928.03  14
 -12   6  -2 107388. 1495.02  15
 -12  -6  -2 101021. 2355.70   8
 -12   6  -2 102473. 1209.34  12
 -12  -6  -2 107178. 2089.99  11
 -12   6  -3 3073.33 279.591  15
 -12  -6  -3 2936.46 365.354  14
 -12  -6  -3 2749.71 382.858   8
 -12   6  -3 3066.01 223.818  12
 -12  -6  -3 3088.63 380.092  11
 -12   6  -4 36086.7 735.943  12
 -12  -6  -4 37807.3 1296.15  14
 -12   6  -4 39204.9 956.838  15
 -12  -6  -4 36602.5 1128.76   6
 -12  -6  -4 35509.1 1229.51   8
 -12   6  -5 3864.84 244.103  12
 -12  -6  -5 3828.47 447.319  14
 -12   6  -5 3739.46 308.747  15
 -12  -6  -5 3616.06 364.047   6
 -12  -6  -5 3983.71 391.880   8
 -12  -6  -6 148.295 143.513   6
 -12   6  -6 377.611 129.043  15
 -12  -6  -6 134.174 151.031  14
 -12   6  -6 490.651 103.558  12
 -12   6  -7 7093.42 427.286  15
 -12  -6  -7 6942.11 469.116  14
 -12  -6  -7 6436.03 439.340   6
 -12   6  -7 6705.73 309.833  12
 -12   6  -8 58944.8 853.852  12
 -12  -6  -8 60824.6 1211.09  14
 -12   6  -8 57202.8 1146.10  15
 -12   6  -9 6991.73 280.592  12
 -12   6  -9 6371.16 364.305  15
 -12  -6  -9 6868.14 356.850  14
 -12   6 -10 25084.3 610.646  15
 -12   7  10 1614.24 120.904  13
 -12  -7  10 1543.11 102.488  14
 -12   7   9 74839.9 886.870  13
 -12  -7   9 76671.1 819.762  14
 -12  -7   9 74473.3 777.343   8
 -12  -7   8 439.092 85.8931  14
 -12   7   8 433.819 93.9984  13
 -12  -7   8 469.407 85.0507   8
 -12   7   7 9939.78 384.314  13
 -12  -7   7 10314.8 371.796  14
 -12  -7   7 10494.8 371.757   8
 -12   7   6 5473.98 304.152  13
 -12  -7   6 5285.22 290.229  14
 -12  -7   6 4958.86 278.049   8
 -12   7   5 15726.8 534.491  13
 -12  -7   5 15377.9 512.400  14
 -12  -7   5 15640.8 519.618   8
 -12  -7   4-37.8723 88.3775  14
 -12   7   4 204.713 89.5880  13
 -12  -7   4 66.4371 85.5988   8
 -12   7   3 70102.6 1195.08  13
 -12  -7   3 71312.2 1261.45   8
 -12  -7   3 70280.9 1192.36  14
 -12  -7   2 2331.50 256.119   8
 -12  -7   2 2505.63 248.664  14
 -12  -7   1 16030.8 685.920   8
 -12  -7   1 15721.8 621.176  14
 -12   7   1 16692.6 520.256  15
 -12  -7   0 14483.0 623.148  14
 -12   7   0 15346.3 519.457  15
 -12  -7   0 14234.9 688.527   8
 -12   7   0 13414.4 410.593  12
 -12  -7  -1 36513.4 1040.48  14
 -12   7  -1 37534.2 833.110  15
 -12  -7  -1 36652.9 1162.75   8
 -12   7  -1 35748.8 684.626  12
 -12  -7  -2 4876.89 412.398  14
 -12   7  -2 4925.69 322.246  15
 -12   7  -2 4313.97 254.504  12
 -12  -7  -2 4349.86 424.961   8
 -12   7  -3 65591.0 1164.25  15
 -12  -7  -3 63628.3 1492.50  14
 -12   7  -3 63846.4 936.214  12
 -12  -7  -3 62372.6 1627.63   8
 -12  -7  -4-64.6516 176.244   6
 -12   7  -4-105.867 132.393  15
 -12  -7  -4 48.0977 141.059  14
 -12   7  -4-7.94467 85.0112  12
 -12  -7  -4-122.000 149.299   8
 -12  -7  -5 731.889 175.119   6
 -12   7  -5 785.518 146.628  15
 -12  -7  -5 734.745 189.247  14
 -12   7  -5 763.361 116.106  12
 -12   7  -6 10810.2 489.111  15
 -12  -7  -6 11351.6 610.980  14
 -12  -7  -6 10149.4 534.814   6
 -12   7  -6 10774.6 376.292  12
 -12   7  -7 13936.1 539.600  15
 -12  -7  -7 14711.4 611.880  14
 -12   7  -7 14697.8 422.824  12
 -12  -7  -7 13459.3 594.069   6
 -12   7  -8 750.951 109.548  12
 -12   7  -8 650.402 137.151  15
 -12  -7  -8 697.517 133.145  14
 -12   7  -9 65664.1 980.396  15
 -12   7  -9 65908.7 738.303  12
 -12  -8   9 34.6365 38.5819  14
 -12   8   9 74.0021 48.6116  13
 -12  -8   8 31654.5 540.555  14
 -12   8   8 30318.3 547.193  13
 -12  -8   7 11401.3 360.113  14
 -12   8   7 10996.9 363.658  13
 -12  -8   6 5076.35 263.276  14
 -12   8   6 4894.08 260.678  13
 -12  -8   5 7315.96 332.619  14
 -12  -8   5 6405.52 281.966   8
 -12   8   5 7165.52 333.990  13
 -12  -8   4 41690.5 825.072  14
 -12  -8   4 40373.1 756.297   8
 -12   8   4 41349.5 817.741  13
 -12  -8   3 234.721 98.0959  14
 -12  -8   3 283.184 85.5577   8
 -12   8   3 199.367 76.3347  13
 -12  -8   2 49613.4 985.261  14
 -12   8   1 3287.16 197.501  12
 -12  -8   1 3366.12 277.349  14
 -12   8   1 3442.66 236.927  15
 -12   8   0 1145.82 134.454  12
 -12  -8   0 1575.05 206.015  14
 -12   8   0 1507.66 171.842  15
 -12   8  -1 16552.4 445.256  12
 -12  -8  -1 16829.7 659.207  14
 -12   8  -1 17020.2 538.267  15
 -12   8  -2 87304.3 1037.90  12
 -12  -8  -2 90461.6 1563.22  14
 -12   8  -2 91867.6 1269.37  15
 -12   8  -3 353.239 95.9176  12
 -12   8  -3 477.249 127.402  15
 -12  -8  -3 323.403 130.221  14
  12  -8   3 126.135 145.399  20
 -12   8  -4 19515.0 603.562  15
 -12   8  -4 18706.2 480.101  12
 -12  -8  -4 19030.3 752.060  14
  12  -8   4 20532.1 802.175  20
 -12  -8  -5 1720.83 234.030  14
 -12   8  -5 1712.15 186.774  15
 -12   8  -5 1871.10 154.739  12
 -12   8  -6 763.162 133.521  15
 -12  -8  -6 649.014 139.139  14
 -12   8  -6 732.153 99.4225  12
 -12  -8  -7 6496.44 345.633  14
 -12   8  -7 5569.35 306.700  15
 -12   8  -7 6301.10 249.273  12
 -12   8  -8 21386.0 528.209  15
 -12   8  -8 22027.1 415.030  12
 -12  -9   8 4803.78 181.049  14
 -12   9   8 4854.58 180.047  13
 -12  -9   7 8430.15 273.191  14
 -12   9   7 8388.87 268.515  13
 -12  -9   6 5583.81 245.468  14
 -12   9   6 5166.54 231.991  13
 -12  -9   5 19197.6 481.053  14
 -12   9   5 18688.1 461.148  13
 -12  -9   4 55.7977 67.3175  14
 -12   9   4 157.889 58.4955  13
 -12  -9   3 34739.5 716.173  14
 -12   9   3 35123.5 661.133  13
 -12  -9   2 5319.37 298.805  14
 -12   9   2 5224.98 254.975  15
 -12  -9   1 6701.61 347.472  14
 -12   9   1 6983.47 305.007  15
 -12  -9   0 20653.9 625.542  14
 -12   9   0 21020.8 535.403  15
 -12  -9  -1 25266.5 712.335  14
 -12   9  -1 26354.6 615.056  15
  12  -9   1 25472.6 818.729  20
 -12   9  -2 6395.01 315.729  15
 -12   9  -2 6059.22 255.222  12
 -12  -9  -2 6383.32 372.226  14
  12  -9   2 6203.39 415.489  20
 -12   9  -3 43321.2 807.683  15
 -12   9  -3 41384.7 648.940  12
 -12  -9  -3 42822.0 946.759  14
  12  -9   3 43174.5 1018.60  20
 -12   9  -4 4910.50 278.694  15
 -12   9  -4 5217.50 231.191  12
  12  -9   4 4903.47 298.207  20
 -12  -9  -4 4973.18 321.299  14
 -12   9  -5 693.107 117.993  15
 -12  -9  -5 493.253 96.3119  14
 -12   9  -5 527.706 83.1641  12
 -12   9  -6 1642.33 155.505  15
 -12   9  -6 1740.54 125.834  12
 -12   9  -7 18238.3 432.113  15
 -12 -10   6 13.8239 36.7278  14
 -12  10   5 2792.44 143.662  13
  12 -10  -5 2795.47 158.693  20
 -12 -10   5 2815.24 159.329  14
 -12  10   5 2758.90 130.311  15
 -12  10   4 43207.2 571.264  13
  12 -10  -4 44559.9 693.666  20
 -12 -10   4 43606.8 653.631  14
 -12  10   3 517.969 75.0744  13
 -12  10   3 376.902 74.9939  15
 -12 -10   3 416.950 84.4358  14
  12 -10  -3 350.971 88.7857  20
 -12 -10   2 28327.6 580.271  14
 -12  10   2 27878.5 513.485  15
  12 -10  -2 29458.4 654.355  20
 -12 -10   1 6667.26 295.048  14
 -12  10   1 6185.65 258.562  15
  12 -10  -1 6397.05 324.270  20
 -12  10   0 1214.17 107.355  12
  12 -10   0 1700.04 184.779  20
 -12 -10   0 1643.33 158.262  14
 -12  10   0 1591.27 140.348  15
  12 -10   1 11778.8 452.105  20
 -12 -10  -1 11743.1 399.821  14
 -12  10  -1 11878.6 370.418  15
  12 -10   2 24349.9 627.464  20
 -12 -10  -2 23487.1 551.851  14
 -12  10  -2 23925.6 526.747  15
 -12  10  -3 3940.14 176.381  12
  12 -10   3 4124.02 236.311  20
 -12 -10  -3 3730.90 210.313  14
 -12  10  -3 3950.29 218.431  15
 -12  10  -4 29309.4 449.950  12
 -12  10  -4 30268.6 566.424  15
 -12  10  -5 4256.33 201.919  15
  12 -11  -3 56535.9 644.447  20
 -12  11   2 3176.38 148.073  15
  12 -11  -2 3751.81 184.320  20
 -12  11   1 2040.38 126.996  15
  12 -11  -1 2346.65 157.356  20
 -12  11   0 22521.5 408.912  15
  12 -11   0 22006.1 463.514  20
 -12  11  -1 9078.21 263.646  15
  12 -11   1 9344.01 293.695  20
 -12  11  -2 5612.45 203.326  15
 -13   0  11 54209.1 643.394   8
  13   0 -11 54330.5 660.371  10
 -13   0  10 62.9493 56.1870   8
 -13   0   9 8420.43 336.306   8
 -13   0   8 49.2449 84.4361   8
 -13   0   7 130562. 1518.23   8
 -13   0   6 44.2391 91.2894   8
 -13   0   5 55359.6 1100.89   8
 -13   0   4 22.4059 110.337   8
 -13   0   4-73.7468 105.063  11
 -13   0   3 657.736 155.606   8
 -13   0   3 569.821 154.622  11
 -13   0   2 133.227 125.229   8
 -13   0   2 156.914 139.602  11
 -13   0   1 101614. 1373.74  14
 -13   0   1 105192. 1887.10   8
 -13   0   1 104706. 1951.32  11
 -13   0   0-16.0229 159.002  11
 -13   0   0-40.9158 155.536   8
 -13   0   0-14.9720 89.7318  14
 -13   0  -1 22824.7 717.267  14
 -13   0  -1 22245.5 1029.65  11
 -13   0  -1 21207.1 966.307   8
 -13   0  -2-193.057 300.892  11
 -13   0  -2-112.433 171.497   8
 -13   0  -2-72.1889 121.320  14
 -13   0  -3 37228.4 986.211  14
 -13   0  -3 38525.3 1541.20  11
 -13   0  -3 35068.7 1397.76   8
 -13   0  -4-218.621 305.445  11
 -13   0  -4-68.0229 126.691  14
 -13   0  -4-84.6637 264.505   8
 -13   0  -5 50911.3 836.671  15
 -13   0  -5 50760.8 1197.14  14
 -13   0  -5 53073.6 1666.11  11
 -13   0  -5 48393.1 1643.98   8
 -13   0  -6 10.7985 168.463  11
 -13   0  -6-81.7086 107.264  14
 -13   0  -6 7.30057 63.8947  15
 -13   0  -6-149.976 258.264   8
 -13   0  -7 17138.0 487.675  15
 -13   0  -7 16908.5 679.043  14
 -13   0  -7 18123.3 831.505  11
 -13   0  -8-119.283 127.319  14
 -13   0  -8-113.295 98.8583  15
 -13   0  -8-101.292 173.622  11
 -13   0  -9 776.046 105.704  15
 -13   0  -9 827.271 165.105  11
 -13   0 -10-54.1624 74.8808  15
 -13   0 -10-45.6808 114.302  11
  13   1 -11 190.527 52.2431  10
  13  -1 -11 62.9244 41.5987  10
 -13   1  11 123.469 42.5326   8
 -13  -1  11 127.076 50.9978   8
 -13   1  10 5502.52 233.554   8
 -13  -1  10 6192.30 263.839   8
 -13   1   9 1660.84 149.268   8
 -13  -1   9 1596.16 158.438   8
 -13   1   8 39863.0 759.569   8
 -13  -1   8 41257.3 808.142   8
 -13   1   7 1079.99 151.837   8
 -13  -1   7 1071.57 164.870   8
 -13   1   6 72664.8 1172.13   8
 -13  -1   6 74904.5 1226.33   8
 -13   1   5 75.5003 84.7605   8
 -13  -1   5 204.744 113.445   8
 -13   1   4 5176.23 356.881   8
 -13  -1   4 5106.68 365.294   8
 -13   1   4 5468.22 388.144  11
 -13  -1   4 4784.21 360.324  11
 -13   1   3 1217.60 205.172  11
 -13  -1   3 1104.82 197.259  11
 -13   1   3 1249.73 199.983   8
 -13  -1   3 1136.96 196.986   8
 -13  -1   3 1249.32 151.556  14
 -13  -1   2 57471.9 1040.35  14
 -13   1   2 60136.6 1324.56   8
 -13  -1   2 60582.9 1355.16   8
 -13   1   2 57658.3 1357.24  11
 -13  -1   2 59974.8 1380.82  11
 -13   1   1 196.104 149.615  11
 -13  -1   1 274.293 165.212  11
 -13   1   1 138.411 120.237   8
 -13  -1   1 287.220 158.485   8
 -13  -1   1 313.690 120.704  14
 -13  -1   0 128937. 1705.83  14
 -13   1   0 127029. 2284.42  11
 -13  -1   0 129619. 2292.56  11
 -13   1   0 128637. 2180.81   8
 -13  -1   0 129494. 2234.82   8
 -13   1  -1 189.000 169.049  11
 -13  -1  -1 322.002 174.649  11
 -13   1  -1 637.482 195.423   8
 -13  -1  -1 298.557 166.826   8
 -13   1  -1 497.330 111.534  14
 -13  -1  -1 622.946 146.208  14
 -13   1  -2 340.040 250.868  11
 -13  -1  -2 42.6498 272.581  11
 -13   1  -2 519.833 120.178  14
 -13  -1  -2 403.245 127.621  14
 -13   1  -2 848.364 250.810   8
 -13  -1  -2 470.407 203.151   8
 -13   1  -3 4451.41 257.745  15
 -13   1  -3 4083.66 310.440  14
 -13  -1  -3 4124.20 353.041  14
 -13   1  -3 4229.80 535.884  11
 -13  -1  -3 3217.21 453.232  11
 -13   1  -3 3924.40 479.697   8
 -13  -1  -3 3737.43 476.243   8
 -13   1  -4 38918.4 759.936  15
 -13   1  -4 39524.7 970.791  14
 -13  -1  -4 38319.3 1073.27  14
 -13   1  -4 40919.2 1595.58  11
 -13  -1  -4 40886.1 1566.04  11
 -13  -1  -4 37179.8 1536.49   8
 -13   1  -5-151.858 219.983  11
 -13  -1  -5-50.9402 185.074  11
 -13   1  -5 96.6012 100.922  14
 -13  -1  -5 145.723 115.125  14
 -13   1  -5 126.592 81.1856  15
 -13  -1  -5-110.816 210.321   8
 -13   1  -5-266.793 258.045   8
 -13   1  -6 42520.4 807.404  15
 -13  -1  -6 42105.3 720.348  15
 -13   1  -6 41797.7 1005.24  14
 -13  -1  -6 43183.9 1160.89  14
 -13   1  -6 45321.9 1424.41  11
 -13  -1  -6 45740.3 1414.37  11
 -13  -1  -6 40229.4 1360.68   8
 -13   1  -7 2670.51 207.554  15
 -13  -1  -7 2364.35 172.438  15
 -13   1  -7 2638.23 255.510  14
 -13  -1  -7 2687.67 297.977  14
 -13   1  -7 2940.83 353.809  11
 -13  -1  -7 2605.07 331.090  11
 -13  -1  -8 5916.33 261.542  15
 -13   1  -8 6073.79 296.387  15
 -13   1  -8 5731.48 350.952  14
 -13  -1  -8 6329.17 419.823  14
 -13   1  -8 6159.82 450.078  11
 -13  -1  -8 6065.34 442.183  11
 -13   1  -9 975.786 125.395  15
 -13  -1  -9 1118.39 176.209  14
 -13  -1  -9 777.819 99.5381  15
 -13   1  -9 1008.33 180.286  11
 -13  -1  -9 1130.78 188.332  11
 -13   1 -10 27584.5 520.677  15
 -13   1 -10 29538.9 786.655  11
 -13  -1 -10 29557.3 777.383  11
 -13  -2  11 21434.8 417.858   8
  13   2 -11 20473.3 360.129  10
  13  -2 -11 21184.0 401.721  10
 -13   2  10 1619.69 114.356   8
 -13  -2  10 1987.94 153.151   8
 -13   2   9 3419.58 193.091   8
 -13  -2   9 3777.63 232.096   8
 -13   2   8 568.071 101.428   8
 -13  -2   8 457.524 113.301   8
 -13   2   7 82384.7 1118.59   8
 -13  -2   7 85716.5 1235.27   8
 -13   2   6 985.064 149.632   8
 -13  -2   6 1019.33 169.861   8
 -13  -2   5 78875.9 1064.30  14
 -13   2   5 80245.2 1250.81   8
 -13  -2   5 78796.3 1322.97   8
 -13   2   5 78838.7 1330.28  11
 -13  -2   5 78983.3 1328.44  11
 -13   2   4 145.523 103.846  11
 -13  -2   4 188.781 108.466  11
 -13   2   4-28.3799 96.0253   8
 -13  -2   4 123.045 99.7220   8
 -13  -2   4 17.8152 84.5064  14
 -13  -2   3 3253.68 250.879  14
 -13   2   3 3129.45 307.198  11
 -13  -2   3 2850.07 295.090  11
 -13   2   3 3188.93 286.006   8
 -13  -2   3 3102.31 302.611   8
 -13  -2   2 3624.63 278.680  14
 -13   2   2 3624.57 358.248  11
 -13  -2   2 3764.60 354.303  11
 -13   2   2 3558.64 325.220   8
 -13  -2   2 3544.77 344.857   8
 -13  -2   1 58687.5 1128.46  14
 -13   2   1 61638.2 1373.29   8
 -13  -2   1 60104.3 1430.83   8
 -13   2   1 60811.2 1459.93  11
 -13  -2   1 61697.7 1455.59  11
 -13  -2   0 732.244 165.159  14
 -13   2   0 385.296 179.690  11
 -13  -2   0 544.033 187.586  11
 -13  -2   0 455.360 169.075   8
 -13   2   0 638.248 183.681   8
 -13  -2  -1 20940.4 735.727  14
 -13   2  -1 20922.1 979.619  11
 -13  -2  -1 20780.8 961.083  11
 -13   2  -1 21108.7 912.340   8
 -13  -2  -1 20929.8 953.198   8
 -13   2  -2 5693.75 292.124  15
 -13  -2  -2 5644.53 402.302  14
 -13   2  -2 5311.92 535.617  11
 -13  -2  -2 5592.72 542.845  11
 -13   2  -2 5681.11 507.635   8
 -13  -2  -2 5649.60 549.091   8
 -13   2  -3 16985.4 511.482  15
 -13   2  -3 17780.6 574.020  14
 -13  -2  -3 16937.7 710.249  14
 -13   2  -3 16337.4 983.828  11
 -13  -2  -3 17915.5 1010.40  11
 -13   2  -3 15955.6 874.131   8
 -13  -2  -3 16022.9 942.717   8
 -13   2  -4 1889.65 200.313  14
 -13  -2  -4 1756.33 247.176  14
 -13   2  -4 2102.99 193.199  15
 -13   2  -4 1732.64 349.502  11
 -13  -2  -4 2180.77 386.264  11
 -13   2  -4 1290.34 285.932   8
 -13  -2  -4 1458.27 342.226   8
 -13   2  -5 78270.8 1131.56  15
 -13   2  -5 77180.2 1231.55  14
 -13  -2  -5 77986.1 1580.43  14
 -13   2  -5 78394.0 2025.97  11
 -13  -2  -5 77816.8 1954.19  11
 -13  -2  -5 72483.0 1956.31   8
 -13   2  -6 1276.98 177.990  14
 -13  -2  -6 1287.08 229.681  14
 -13   2  -6 1442.30 167.652  15
 -13   2  -6 1599.39 302.316  11
 -13  -2  -6 1304.01 258.214  11
 -13  -2  -6 1367.93 263.834   8
 -13   2  -7 11902.5 436.135  15
 -13   2  -7 11337.7 457.620  14
 -13  -2  -7 12262.0 623.260  14
 -13   2  -7 11592.6 666.075  11
 -13  -2  -7 11033.4 634.845  11
 -13  -2  -8 332.326 132.783  14
 -13   2  -8 218.170 79.0298  15
 -13   2  -8 156.673 140.163  11
 -13  -2  -8 208.542 136.305  11
 -13   2  -9 17012.3 469.536  15
 -13  -2  -9 16371.9 618.906  14
 -13   2  -9 17366.0 670.595  11
 -13  -2  -9 16925.4 647.563  11
 -13   2 -10 2046.34 213.400  11
 -13  -2 -10 2058.65 210.084  11
 -13   2 -10 1821.10 146.365  15
  13  -3 -11 2152.20 121.993  10
 -13  -3  11 2055.26 129.242   8
  13   3 -10 6660.54 219.036  10
 -13  -3  10 7563.36 281.622   8
 -13   3  10 7248.45 262.371  11
 -13  -3  10 7138.56 260.684  11
 -13  -3   9 2647.22 190.809   8
 -13  -3   8 18225.9 524.124   8
 -13   3   7-24.6578 70.4156   8
 -13  -3   7 1.87282 87.1210   8
 -13  -3   7 35.3800 57.2575  14
 -13  -3   6 89610.3 1083.80  14
 -13   3   6 91179.7 1162.31   8
 -13  -3   6 93205.2 1341.40   8
 -13   3   6 92969.4 1317.38  11
 -13  -3   6 89061.6 1288.39  11
 -13   3   5 101.557 97.8988  11
 -13  -3   5 165.798 110.008  11
 -13   3   5 31.2531 70.2862   8
 -13  -3   5 99.9270 102.789   8
 -13  -3   5 70.7076 73.9483  14
 -13  -3   4 2008.68 194.649  14
 -13   3   4 1760.67 197.680   8
 -13  -3   4 2053.52 239.059   8
 -13   3   4 1781.60 218.645  11
 -13  -3   4 1675.82 209.809  11
 -13   3   3 992.182 184.603  11
 -13  -3   3 1057.95 181.054  11
 -13   3   3 827.501 143.732   8
 -13  -3   3 1156.87 202.808   8
 -13  -3   3 1054.14 153.933  14
 -13  -3   2 81903.4 1287.35  14
 -13   3   2 79760.1 1530.07  11
 -13  -3   2 82994.8 1540.85  11
 -13   3   2 77512.0 1374.86   8
 -13  -3   2 82981.0 1547.97   8
 -13   3   1 1489.74 248.730  11
 -13  -3   1 1667.93 255.543  11
 -13   3   1 1961.34 253.458   8
 -13  -3   1 2257.68 288.807   8
 -13  -3   1 1769.92 213.978  14
 -13  -3   0 86184.0 1433.97  14
 -13   3   0 87222.1 1799.28  11
 -13  -3   0 88144.5 1783.75  11
 -13   3   0 84971.2 1609.09   8
 -13  -3   0 86168.2 1776.27   8
 -13  -3  -1 2468.22 269.297  14
 -13   3  -1 2215.29 183.753  15
 -13   3  -1 2147.11 313.686  11
 -13  -3  -1 2175.71 307.941  11
 -13  -3  -1 2101.88 305.318   8
 -13   3  -1 2324.69 293.781   8
 -13   3  -2 8635.37 367.737  15
 -13  -3  -2 8897.83 504.121  14
 -13   3  -2 8412.28 644.308  11
 -13  -3  -2 8234.85 622.091  11
 -13   3  -2 8028.28 552.733   8
 -13  -3  -2 7977.06 617.266   8
 -13   3  -3 155.173 188.868  11
 -13  -3  -3 410.826 199.253  11
 -13   3  -3 433.961 103.283  15
 -13  -3  -3 542.639 168.062  14
 -13   3  -3 337.075 160.932   8
 -13  -3  -3 347.864 191.636   8
 -13   3  -4 40707.5 824.232  15
 -13  -3  -4 41416.3 1140.26  14
 -13   3  -4 43401.8 1564.13  11
 -13  -3  -4 44671.6 1529.44  11
 -13  -3  -4 39845.5 1501.01   8
 -13   3  -4 36780.6 1215.58   8
 -13   3  -5-60.5180 221.905  11
 -13  -3  -5 9.40738 187.871  11
 -13   3  -5 93.8256 94.6813  15
 -13  -3  -5 0.54074 125.163  14
 -13  -3  -5-63.4040 205.443   8
 -13   3  -6 69646.1 1074.07  15
 -13  -3  -6 70622.7 1507.14  14
 -13   3  -6 71372.3 1762.95  11
 -13  -3  -6 68942.0 1656.78  11
 -13   3  -7-108.978 183.166  11
 -13  -3  -7-169.166 184.618  11
 -13  -3  -7 161.422 134.801  14
 -13   3  -7-25.6145 86.8501  15
 -13   3  -8 419.334 147.489  11
 -13  -3  -8 270.980 122.581  11
 -13  -3  -8 427.555 138.329  14
 -13   3  -8 210.975 83.4110  15
 -13   3  -9 3052.93 280.348  11
 -13  -3  -9 3470.44 286.717  11
 -13   3  -9 3075.14 203.093  15
 -13  -3  -9 3338.57 277.454  14
 -13   3 -10 18243.9 415.003  15
 -13  -4  11 21240.1 361.823   8
  13  -4 -10-60.9061 54.9937  10
 -13  -4  10 19.1670 40.5538  11
 -13  -4  10 94.3903 50.1341   8
 -13   4   9 205.859 59.0760  11
 -13  -4   9 244.874 61.5999  11
 -13  -4   9 254.219 75.4984   8
 -13   4   8 1468.81 142.910  11
 -13  -4   8 1588.81 147.674  11
 -13  -4   8 1520.75 121.991  14
 -13  -4   8 1520.72 154.329   8
 -13   4   7 70563.0 1010.68  11
 -13  -4   7 70462.2 1006.68  11
 -13  -4   7 69452.5 881.437  14
 -13   4   6 1524.85 175.538  11
 -13  -4   6 1677.44 179.937  11
 -13  -4   6 1659.14 161.485  14
 -13  -4   6 1798.03 198.542   8
 -13  -4   5 82135.2 1282.30   8
 -13  -4   5 80595.0 1104.32  14
 -13   4   5 80520.9 1232.22  11
 -13  -4   5 78607.6 1204.96  11
 -13   4   5 77222.0 1070.15  13
 -13  -4   4 2181.62 203.513  14
 -13   4   4 2183.63 229.170  11
 -13  -4   4 2055.65 216.279  11
 -13  -4   4 2320.49 242.210   8
 -13  -4   3 14580.5 524.775  14
 -13  -4   3 14485.1 603.665   8
 -13   4   3 14774.4 595.869  11
 -13  -4   3 15801.0 610.267  11
 -13   4   2 976.301 178.559  11
 -13  -4   2 1037.06 187.640  11
 -13  -4   2 1180.87 203.652   8
 -13  -4   2 809.949 148.179  14
 -13   4   1 69815.1 943.664  15
 -13  -4   1 71393.2 1246.51  14
 -13   4   1 70342.2 1452.82  11
 -13  -4   1 72667.3 1447.06  11
 -13  -4   1 71843.7 1480.30   8
 -13  -4   0 1789.88 224.964  14
 -13   4   0 1908.78 175.790  15
 -13   4   0 1537.96 248.099  11
 -13  -4   0 1400.08 226.447  11
 -13  -4   0 1665.88 263.618   8
 -13   4  -1 16257.3 493.266  15
 -13  -4  -1 17473.4 671.261  14
 -13   4  -1 16718.1 661.842   8
 -13  -4  -1 16208.4 792.607   8
 -13   4  -1 17386.6 807.666  11
 -13  -4  -1 18016.6 802.653  11
 -13   4  -2 3711.33 247.162  15
 -13  -4  -2 3400.61 315.701  14
 -13  -4  -2 3094.98 375.090   8
 -13   4  -2 3491.84 318.281   8
 -13   4  -2 3325.62 383.184  11
 -13  -4  -2 3179.33 363.488  11
 -13   4  -3 11868.1 442.669  15
 -13  -4  -3 11581.0 584.101  14
 -13  -4  -3 11628.2 740.187   8
 -13   4  -3 10968.8 561.133   8
 -13   4  -3 10833.7 693.724  11
 -13  -4  -3 12128.3 709.098  11
 -13   4  -4 7553.91 360.276  15
 -13  -4  -4 7306.75 480.163  14
 -13  -4  -4 6909.21 595.479   8
 -13   4  -4 6469.12 548.731  11
 -13  -4  -4 7804.13 582.078  11
 -13   4  -5 79622.5 1146.70  15
 -13  -4  -5 77491.2 1548.95  14
 -13   4  -5 81100.5 1894.89  11
 -13  -4  -5 82850.8 1826.66  11
 -13  -4  -5 75575.1 1863.74   8
 -13   4  -6 299.321 109.601  15
 -13  -4  -6 187.396 135.175  14
 -13   4  -6-100.571 210.137  11
 -13  -4  -6 36.5720 148.361  11
 -13   4  -7 34010.8 724.556  15
 -13  -4  -7 34966.5 996.717  14
 -13   4  -7 35991.1 1071.96  11
 -13   4  -8 1709.65 166.075  15
 -13  -4  -8 1816.31 225.270  14
 -13   4  -8 1636.22 204.340  11
 -13  -4  -8 1559.69 187.506  11
 -13   4  -9 7767.70 304.473  15
 -13  -4  -9 7653.33 311.415  11
 -13  -4  -9 8327.00 393.593  14
 -13   5  10 3239.44 148.881  13
 -13  -5  10 3501.50 159.752   8
 -13  -5   9 1191.47 87.2515  14
  13  -5  -9 1161.18 96.4602  10
 -13  -5   9 1418.10 123.481   8
 -13   5   9 1083.19 105.364  13
 -13  -5   8 19583.5 485.251   8
 -13  -5   8 18924.3 402.519  14
 -13   5   8 17437.0 390.817  11
 -13  -5   8 18355.7 401.837  11
 -13   5   8 18078.5 439.229  13
 -13  -5   7 9983.04 377.939   8
 -13  -5   7 9893.57 330.301  14
 -13   5   7 9516.89 328.969  11
 -13  -5   7 9814.69 334.430  11
 -13   5   7 9559.60 342.821  13
 -13  -5   6 66273.1 1030.54   8
 -13  -5   6 64793.8 915.752  14
 -13   5   6 63817.2 925.235  11
 -13  -5   6 63870.4 923.623  11
 -13  -5   5 9121.32 410.107   8
 -13  -5   5 9187.14 371.963  14
 -13   5   5 8778.44 374.354  11
 -13  -5   5 9140.70 376.808  11
 -13   5   5 9006.38 355.540  13
 -13  -5   4 2330.64 206.240  14
 -13  -5   4 2245.74 226.800   8
 -13   5   4 2130.95 201.904  11
 -13  -5   4 2076.22 199.607  11
 -13   5   3 933.684 154.943  11
 -13  -5   3 967.264 152.077  11
 -13  -5   3 896.567 160.291   8
 -13  -5   3 894.249 145.124  14
 -13   5   2 55006.9 801.902  15
 -13  -5   2 57542.3 1056.42  14
 -13  -5   2 59741.3 1215.31   8
 -13   5   2 59846.1 1162.77  11
 -13  -5   2 56873.9 1110.72  11
 -13   5   1 470.918 132.865  11
 -13  -5   1 248.325 93.4537  11
 -13  -5   1 467.545 144.682   8
 -13   5   1 669.157 109.741  15
 -13  -5   1 437.632 125.329  14
 -13   5   0 76143.3 1028.15  15
 -13  -5   0 78393.0 1328.35  14
 -13   5   0 78385.4 1466.79  11
 -13  -5   0 79921.3 1449.11  11
 -13  -5   0 78203.5 1543.23   8
 -13   5  -1 97.5232 118.745  11
 -13  -5  -1 107.076 107.447  11
 -13  -5  -1 153.692 136.075   8
 -13   5  -1 115.004 75.1297  15
 -13  -5  -1 68.6151 92.1059  14
 -13   5  -2 4176.23 260.759  15
 -13  -5  -2 4695.50 425.677   8
 -13  -5  -2 4399.50 347.610  14
 -13   5  -2 4239.12 375.100  11
 -13  -5  -2 4636.70 384.944  11
 -13   5  -3 3757.16 249.621  15
 -13  -5  -3 3942.34 402.278   8
 -13  -5  -3 4074.44 339.921  14
 -13   5  -3 3681.51 354.164  11
 -13  -5  -3 4118.58 365.060  11
 -13   5  -4 33221.2 730.002  15
 -13  -5  -4 32247.4 1131.11   8
 -13  -5  -4 33670.9 969.310  14
 -13   5  -4 32654.0 1013.27  11
 -13  -5  -4 35109.0 1016.87  11
 -13   5  -5 2634.46 220.537  15
 -13  -5  -5 2386.20 320.126   8
 -13  -5  -5 2763.08 296.748  14
 -13   5  -5 2121.76 257.897  11
 -13  -5  -5 2884.25 287.820  11
 -13   5  -6 66314.2 1008.07  15
 -13  -5  -6 65006.7 1320.00  14
 -13   5  -6 64656.9 1210.20  11
 -13  -5  -6 66727.3 1214.75  11
 -13   5  -7 8273.22 348.137  15
 -13  -5  -7 8579.18 462.242  14
 -13   5  -7 7669.42 243.968  12
 -13   5  -7 7654.38 355.257  11
 -13  -5  -7 8184.80 367.765  11
 -13   5  -8 2488.87 185.874  15
 -13  -5  -8 2354.33 225.024  14
 -13   5  -9 1728.46 137.404  15
 -13  -5  -9 2231.43 174.386  14
 -13   6   9 6769.96 217.202  13
 -13  -6   9 7248.51 223.215   8
 -13   6   8 2454.71 152.572  13
 -13  -6   8 2455.40 158.079   8
 -13  -6   8 2621.30 148.711  14
 -13   6   7 60238.5 781.612  13
 -13  -6   7 61405.9 836.639   8
 -13  -6   7 62278.0 785.864  14
 -13  -6   6 418.317 88.8441  14
 -13   6   6 487.329 86.8709  13
 -13  -6   6 442.816 97.4428   8
 -13   6   5 37035.7 665.896  13
 -13  -6   5 39076.0 730.825  14
 -13  -6   5 39002.3 770.350   8
 -13  -6   4 16574.5 505.639  14
 -13  -6   4 16201.8 527.993   8
 -13  -6   3 896.393 136.879  14
 -13   6   3 864.580 102.678  15
 -13  -6   3 1085.78 157.166   8
 -13   6   2 213.468 63.9279  15
 -13  -6   2 352.840 109.981  14
 -13  -6   2 247.100 108.997   8
 -13  -6   1 49693.7 1072.86   8
 -13  -6   1 49634.8 979.829  14
 -13   6   1 48200.5 772.216  15
 -13  -6   0 626.136 158.839   8
 -13   6   0 730.938 115.765  15
 -13  -6   0 530.973 144.816  14
 -13   6  -1 28858.6 636.430  15
 -13  -6  -1 29450.5 904.302   8
 -13  -6  -1 29603.3 810.746  14
 -13   6  -2 5181.75 280.949  15
 -13  -6  -2 4967.36 390.781   8
 -13  -6  -2 5533.71 365.417  14
 -13   6  -3 22707.8 580.200  15
 -13  -6  -3 20792.0 782.424   8
 -13  -6  -3 21636.9 724.537  14
 -13   6  -4 11425.7 415.335  15
 -13  -6  -4 11276.2 530.190  14
 -13  -6  -4 10646.1 553.664   8
 -13   6  -5 57891.4 910.180  15
 -13  -6  -5 57048.2 1162.89  14
 -13   6  -6 747.830 84.8211  12
 -13   6  -6 831.760 126.024  15
 -13  -6  -6 795.621 152.449  14
 -13   6  -7 16664.2 457.252  15
 -13   6  -7 15722.5 317.484  12
 -13  -6  -7 17126.5 565.299  14
 -13  -6  -8 7316.40 311.082  14
 -13   6  -8 7003.57 269.518  15
 -13  -7   8 38062.9 489.993  14
 -13   7   7 3020.36 158.281  13
 -13  -7   7 3050.14 155.022   8
 -13  -7   7 3357.85 175.022  14
 -13  -7   6 40538.4 621.048   8
 -13  -7   6 41214.8 656.921  14
 -13   7   5 2656.89 163.588  13
 -13  -7   5 2678.55 180.319   8
 -13  -7   5 2590.37 184.923  14
 -13  -7   4 7432.84 315.678   8
 -13  -7   4 7848.91 329.525  14
 -13  -7   3 10030.9 386.539   8
 -13   7   3 8917.37 287.674  15
 -13  -7   3 9453.36 378.673  14
 -13  -7   2 31617.5 714.538   8
 -13  -7   2 31949.7 716.687  14
 -13  -7   1 232.413 91.9817   8
 -13   7   1 257.340 77.9751  15
 -13  -7   1 68.3158 82.2881  14
 -13  -7   0 89370.2 1289.42   8
 -13   7   0 89512.2 1037.48  15
 -13  -7   0 89875.8 1279.33  14
 -13  -7  -1 142.075 77.2125   8
 -13   7  -1 49.4528 72.6686  15
 -13  -7  -1 154.384 102.799  14
 -13  -7  -2 59.7006 89.7097   8
 -13   7  -2 231.482 85.6487  15
 -13  -7  -2 4.64453 93.9230  14
  13  -7   3 5586.19 328.054  20
 -13  -7  -3 5460.61 338.572  14
 -13  -7  -3 5429.95 318.041   8
 -13   7  -3 5744.80 281.453  15
 -13   7  -4 25950.9 581.162  15
 -13   7  -4 25032.2 423.377  12
 -13  -7  -4 25702.8 714.227  14
 -13   7  -5 82.7789 52.3954  12
 -13   7  -5 189.908 83.1517  15
 -13  -7  -5-1.23280 105.754  14
 -13   7  -6 23914.3 522.253  15
 -13  -7  -6 24431.9 619.446  14
 -13   7  -7 3974.61 200.618  15
 -13  -7  -7 3794.13 209.230  14
 -13  -8   7 37878.4 494.626  14
 -13  -8   6 1000.29 98.5332  14
 -13  -8   5 20772.0 455.288  14
 -13   8   4 9247.21 241.820  15
 -13  -8   4 12764.5 381.988  14
 -13  -8   3 1217.02 133.303  14
 -13   8   3 992.532 96.1180  15
 -13  -8   2 6423.65 298.985  14
 -13   8   2 5859.84 233.202  15
 -13   8   1 61533.3 775.792  15
 -13  -8   1 63187.5 952.441  14
 -13   8   0 143.081 70.0076  15
 -13  -8   0 226.965 100.814  14
 -13   8  -1 16246.0 421.024  15
  13  -8   1 16289.2 536.060  20
 -13  -8  -1 15741.9 495.588  14
 -13   8  -2 9168.39 321.449  15
  13  -8   2 9239.68 385.160  20
 -13  -8  -2 9782.95 395.586  14
 -13   8  -3 18466.2 452.179  15
 -13  -8  -3 18598.9 536.140  14
 -13  -8  -4 6288.17 302.055  14
 -13   8  -4 6386.91 264.787  15
 -13  -8  -5 33154.9 622.329  14
 -13   8  -5 34608.0 576.225  15
 -13   8  -6 528.167 76.8618  15
  13  -9  -5 1180.87 97.3400  20
 -13  -9   5 1329.63 102.294  14
 -13  -9   4 2589.20 151.484  14
 -13  -9   3 6184.58 243.146  14
 -13   9   3 5864.18 187.543  15
 -13  -9   2 24294.1 497.688  14
  13  -9  -2 24466.7 531.629  20
 -13   9   2 24563.5 413.355  15
 -13  -9   1 3356.46 195.370  14
  13  -9  -1 3520.33 216.265  20
 -13   9   1 3202.27 163.396  15
  13  -9   0 53327.6 809.480  20
 -13   9   0 52984.1 654.837  15
 -13  -9  -1 4677.66 230.938  14
  13  -9   1 4573.79 234.728  20
 -13   9  -1 4597.22 202.470  15
 -13  -9  -2 862.359 102.576  14
  13  -9   2 881.506 99.7701  20
 -13   9  -2 945.829 99.8117  15
 -13  -9  -3 2385.46 152.367  14
 -13   9  -3 2555.36 149.927  15
 -13   9  -4 21903.3 402.734  15
  13 -10  -2 9800.43 259.285  20
  13 -10  -1 43249.3 557.365  20
  14   0 -10 61714.4 604.585  10
 -14   0  10 62882.8 653.500  11
 -14   0   9 41.6015 45.9272  11
 -14   0   9-19.4228 47.8643   8
 -14   0   8 11170.4 343.135   8
 -14   0   8 11114.8 362.910  11
 -14   0   7-42.7070 74.6657  11
 -14   0   7-63.7212 66.4302   8
 -14   0   6 7515.19 334.052   8
 -14   0   6 8186.77 364.178  11
 -14   0   5-67.8174 98.7006  11
 -14   0   5-66.3890 89.6071   8
 -14   0   4 85959.0 1250.97   8
 -14   0   4 86240.5 1299.69  11
 -14   0   3 47.4979 96.5034  11
 -14   0   3-104.397 111.025   8
 -14   0   2 36973.2 939.550  11
 -14   0   2 37990.5 913.449   8
 -14   0   1-93.3873 128.159   8
 -14   0   1-32.0814 128.737  11
 -14   0   0 23230.9 553.665  14
 -14   0   0 24488.8 797.223   8
 -14   0   0 23758.2 816.777  11
 -14   0  -1 54.1424 75.3937  14
 -14   0  -1 148.461 130.753   8
 -14   0  -1-78.6434 119.017  11
 -14   0  -2 86064.8 1134.89  14
 -14   0  -2 89282.6 1611.01   8
 -14   0  -2 91857.2 1697.40  11
 -14   0  -3-31.7894 71.9665  14
 -14   0  -3-36.3524 133.120   8
 -14   0  -3 26.4263 118.910  11
 -14   0  -4 9884.39 392.937  14
 -14   0  -4 10149.8 557.969   8
 -14   0  -4 9494.71 565.310  11
 -14   0  -5-5.29642 62.9712  14
 -14   0  -5-117.182 146.673  11
 -14   0  -6 3259.72 217.252  14
 -14   0  -6 3577.04 331.849  11
 -14   0  -7-4.55274 58.7860  14
 -14   0  -7-54.8137 117.723  11
 -14   0  -8 55067.0 984.176  11
 -14   0  -9-10.8362 56.6343  11
  14  -1 -10 35.7601 32.8584  10
 -14   1  10 23.5685 36.6696  11
 -14  -1  10 45.6395 37.0542  11
 -14  -1   9 54045.7 678.385   8
 -14   1   9 54926.6 707.111  11
 -14  -1   9 56120.9 715.227  11
 -14   1   8 1512.03 124.715   8
 -14  -1   8 1582.54 139.483   8
 -14   1   8 1445.20 136.792  11
 -14  -1   8 1371.42 134.904  11
 -14   1   7 132.606 63.5288  11
 -14  -1   7 182.286 71.9680  11
 -14   1   7 260.182 72.5545   8
 -14  -1   7 351.599 78.3385   8
 -14   1   6 2011.64 173.288   8
 -14  -1   6 2050.16 184.356   8
 -14   1   6 2170.53 191.121  11
 -14  -1   6 1998.16 188.208  11
 -14   1   5 28843.9 669.341   8
 -14  -1   5 30021.7 709.459   8
 -14   1   5 30207.8 729.257  11
 -14  -1   5 30218.9 730.057  11
 -14   1   4 1056.15 153.180   8
 -14  -1   4 1218.96 170.859   8
 -14   1   4 1238.69 179.620  11
 -14  -1   4 1289.86 183.167  11
 -14   1   3 88907.0 1303.04   8
 -14  -1   3 90699.2 1356.71   8
 -14   1   3 88702.5 1371.41  11
 -14  -1   3 87975.6 1365.46  11
 -14  -1   2-61.8031 77.6709  14
 -14   1   2-49.1794 119.129  11
 -14  -1   2-0.96680 98.2100  11
 -14   1   2-81.5814 112.740   8
 -14  -1   2-57.1847 117.938   8
 -14  -1   1 1618.44 216.559  11
 -14  -1   1 1621.98 211.810   8
 -14  -1   1 1325.66 144.247  14
 -14   1   1 1354.39 202.698  11
 -14   1   1 1475.42 200.269   8
 -14   1   0 2405.47 271.623  11
 -14  -1   0 2687.85 283.166  11
 -14   1   0 2708.23 267.323   8
 -14  -1   0 2930.15 286.338   8
 -14  -1   0 2305.36 194.211  14
 -14   1  -1 67589.3 1405.51  11
 -14  -1  -1 68020.3 1409.08  11
 -14   1  -1 66847.3 1319.09   8
 -14  -1  -1 66023.2 1357.06   8
 -14  -1  -1 64613.3 1017.39  14
 -14   1  -2 1514.64 252.543  11
 -14  -1  -2 1580.99 247.941  11
 -14   1  -2 1603.27 227.439   8
 -14  -1  -2 1807.47 255.824   8
 -14  -1  -2 1631.30 180.272  14
 -14   1  -3 33844.3 1039.81  11
 -14  -1  -3 33804.1 1039.11  11
 -14   1  -3 33725.3 659.813  14
 -14  -1  -3 33457.3 756.773  14
 -14  -1  -3 32310.5 997.124   8
 -14   1  -3 33457.7 966.831   8
 -14   1  -4 103.398 65.4107  14
 -14  -1  -4 126.280 80.1235  14
 -14   1  -4 84.8214 119.211  11
 -14  -1  -4 68.1729 112.672  11
 -14  -1  -4-17.8255 129.049   8
 -14   1  -4-19.0207 124.637   8
 -14   1  -5 4744.56 248.260  14
 -14  -1  -5 4886.96 290.529  14
 -14  -1  -5 4216.87 362.861   8
 -14   1  -5 4611.45 389.211  11
 -14  -1  -5 5018.86 402.614  11
 -14   1  -6 803.728 105.799  14
 -14  -1  -6 972.518 135.978  14
 -14   1  -6 623.479 80.0881  15
 -14   1  -6 591.867 165.504  11
 -14  -1  -6 765.882 161.639  11
 -14  -1  -7 49308.8 808.680  14
 -14   1  -7 48540.6 1048.44  11
 -14  -1  -7 50167.3 1062.14  11
 -14   1  -8 2795.04 226.575  11
 -14  -1  -8 2639.41 218.340  11
 -14  -1  -8 2256.71 164.104  14
 -14  -2   9 2356.56 147.227   8
 -14   2   9 2515.18 149.455  11
 -14  -2   9 2456.23 147.802  11
 -14   2   8 13573.6 308.925   8
 -14  -2   8 14952.5 402.065   8
 -14   2   8 14674.0 394.387  11
 -14  -2   8 14498.8 393.845  11
 -14   2   7-59.4365 72.0520  11
 -14  -2   7 2.45232 65.5201  11
 -14   2   7-65.5800 56.5533   8
 -14  -2   7-11.4087 66.6732   8
 -14   2   6 11693.3 372.633   8
 -14  -2   6 12209.1 427.955   8
 -14   2   6 11849.6 419.163  11
 -14  -2   6 11983.4 424.636  11
 -14   2   5 260.497 94.9111  11
 -14  -2   5 391.381 108.662  11
 -14   2   5 235.792 81.4999   8
 -14  -2   5 382.361 111.399   8
 -14  -2   4 85427.5 953.184  14
 -14   2   4 88166.2 1165.10   8
 -14  -2   4 91784.5 1295.91   8
 -14   2   4 88372.9 1271.62  11
 -14  -2   4 88918.8 1276.44  11
 -14  -2   3 245.503 107.798   8
 -14  -2   3 386.097 82.8686  14
 -14   2   3 217.721 93.5401   8
 -14   2   3 179.842 98.2416  11
 -14  -2   3 365.482 121.671  11
 -14  -2   2 37205.3 718.541  14
 -14   2   2 39415.3 862.552   8
 -14  -2   2 39642.8 932.617   8
 -14   2   2 39406.8 936.743  11
 -14  -2   2 39219.4 929.692  11
 -14  -2   1 925.594 163.655   8
 -14  -2   1 1073.68 136.384  14
 -14   2   1 1066.10 175.450  11
 -14  -2   1 1134.06 177.638  11
 -14   2   1 1150.93 169.684   8
 -14   2   0 11437.3 551.215  11
 -14  -2   0 10815.1 531.058  11
 -14  -2   0 10653.5 418.663  14
 -14   2   0 11218.3 499.461   8
 -14  -2   0 11564.7 547.523   8
 -14  -2  -1 41.4744 78.3608  14
 -14   2  -1 80.4555 128.463  11
 -14  -2  -1 187.854 138.981  11
 -14  -2  -1 256.448 142.686   8
 -14   2  -1 91.1641 92.7375   8
 -14   2  -2 94058.0 1655.39  11
 -14  -2  -2 95616.1 1656.12  11
 -14   2  -2 95095.3 1504.47   8
 -14  -2  -2 95223.7 1655.09   8
 -14  -2  -2 93698.9 1285.78  14
 -14  -2  -3 1576.09 182.078  14
 -14  -2  -3 1298.13 228.891   8
 -14   2  -3 1483.51 203.615   8
 -14   2  -3 1428.81 229.531  11
 -14  -2  -3 1681.12 242.203  11
 -14  -2  -4 20811.1 612.097  14
 -14   2  -4 20958.2 447.431  15
 -14   2  -4 21972.5 719.024   8
 -14  -2  -4 21162.0 796.237   8
 -14   2  -4 22198.8 811.082  11
 -14  -2  -4 22286.0 807.240  11
 -14   2  -5 1013.62 191.598  11
 -14  -2  -5 866.211 174.777  11
 -14  -2  -5 1128.36 153.651  14
 -14  -2  -5 824.040 179.525   8
 -14   2  -5 1024.87 104.830  15
 -14  -2  -6 15981.7 507.161  14
 -14   2  -6 15709.3 372.897  15
 -14   2  -6 15938.1 626.549  11
 -14  -2  -6 17351.6 648.992  11
 -14  -2  -7 2335.41 189.819  14
 -14   2  -7 2212.02 138.718  15
 -14   2  -7 2486.13 229.782  11
 -14  -2  -7 2167.78 215.160  11
 -14   2  -8 37424.1 712.830  11
 -14  -2  -8 38318.2 721.050  11
 -14  -2  -8 36698.4 629.171  14
 -14  -3   9 45756.8 597.384   8
 -14  -3   9 43588.9 529.388  11
 -14  -3   8 1086.74 114.734   8
 -14   3   8 919.593 100.295  11
 -14  -3   8 1060.93 105.170  11
 -14  -3   7 6856.80 293.945   8
 -14   3   7 7062.46 284.344  11
 -14  -3   7 7043.53 283.010  11
 -14   3   6 192.395 70.0665  11
 -14  -3   6 261.940 81.6017  11
 -14  -3   6 215.393 83.8439   8
 -14  -3   5 84253.8 903.761  14
 -14  -3   5 88091.7 1179.19   8
 -14   3   5 85276.1 1127.91  11
 -14  -3   5 86324.2 1134.04  11
 -14  -3   4 799.532 150.467   8
 -14  -3   4 760.117 112.045  14
 -14   3   4 535.909 120.764  11
 -14  -3   4 660.733 129.268  11
 -14   3   4 791.287 117.317   8
 -14   3   3 60391.9 1057.76  11
 -14  -3   3 59735.6 1045.85  11
 -14   3   3 62531.1 935.438   8
 -14  -3   3 61359.9 1082.49   8
 -14  -3   3 61791.9 896.357  14
 -14   3   2 4946.54 325.662  11
 -14  -3   2 4980.09 322.984  11
 -14   3   2 4658.78 275.763   8
 -14  -3   2 4940.47 328.991   8
 -14  -3   2 4574.35 262.609  14
 -14   3   1 1748.88 205.276  11
 -14  -3   1 1944.36 210.971  11
 -14   3   1 1859.50 184.892   8
 -14  -3   1 1928.42 218.026   8
 -14  -3   1 1821.93 176.336  14
 -14   3   0 5314.58 361.098  11
 -14  -3   0 5852.38 374.992  11
 -14   3   0 5481.00 321.580   8
 -14  -3   0 6062.89 389.939   8
 -14  -3   0 5545.90 306.819  14
 -14  -3  -1 37104.4 952.154  11
 -14   3  -1 36516.0 951.403  11
 -14  -3  -1 35285.8 778.763  14
 -14   3  -1 35806.7 821.291   8
 -14  -3  -1 36474.8 972.280   8
 -14   3  -2 364.358 77.6775  15
 -14  -3  -2 327.960 108.082  14
 -14  -3  -2 398.715 136.036   8
 -14   3  -2 193.279 95.1389   8
 -14   3  -2 233.136 115.633  11
 -14  -3  -2 156.221 105.105  11
 -14  -3  -3 51721.3 965.442  14
 -14   3  -3 48689.1 692.159  15
 -14   3  -3 51864.0 1160.72  11
 -14  -3  -3 51082.9 1142.19  11
 -14  -3  -3 50956.5 1185.73   8
 -14   3  -3 50208.7 970.984   8
 -14   3  -4 13.5852 59.2207  15
 -14  -3  -4 2.39036 90.8756  14
 -14  -3  -4 8.66743 113.622   8
 -14   3  -4 54.0363 110.590  11
 -14  -3  -4-38.5257 101.154  11
 -14  -3  -5 1474.15 172.616  14
 -14   3  -5 1198.52 116.241  15
 -14  -3  -5 1386.71 204.208   8
 -14  -3  -5 1264.96 185.746  11
 -14   3  -5 1387.80 186.279  11
 -14   3  -6 1035.70 165.649  11
 -14  -3  -6 1226.69 172.095  11
 -14   3  -6 859.775 95.4979  15
 -14  -3  -6 1089.09 144.075  14
 -14   3  -7 57335.9 908.382  11
 -14  -3  -7 57765.9 915.613  11
 -14   3  -7 55371.2 655.061  15
 -14  -3  -7 56260.9 860.537  14
 -14  -3  -8 3745.42 198.522  14
 -14  -4   9 357.215 57.3427   8
 -14  -4   8 39107.6 585.052   8
 -14   4   7 1435.53 120.028  11
 -14  -4   7 1593.95 124.349  11
 -14  -4   7 1661.68 142.168   8
 -14  -4   6 14305.8 335.740  14
 -14   4   6 14520.3 395.023  11
 -14  -4   6 14784.1 399.006  11
 -14  -4   6 14960.0 437.449   8
 -14  -4   5 3867.29 202.357  14
 -14   4   5 3847.29 228.516  11
 -14  -4   5 3889.10 228.129  11
 -14  -4   5 4089.03 254.080   8
 -14  -4   4 98737.4 1058.79  14
 -14   4   4 97541.8 1177.97  11
 -14  -4   4 98941.6 1177.34  11
 -14  -4   3 193.682 71.5461  14
 -14   4   3 138.460 81.0029  11
 -14  -4   3 52.2986 77.8893  11
 -14  -4   3 52.6648 101.973   8
 -14  -4   2 16360.9 481.366  14
 -14  -4   2 16590.5 566.219   8
 -14   4   2 16502.5 537.462  11
 -14  -4   2 15312.9 510.385  11
 -14  -4   1 1826.22 173.482  14
 -14  -4   1 1523.45 185.496   8
 -14   4   1 1573.36 180.653  11
 -14  -4   1 1625.53 183.124  11
 -14  -4   0 8068.40 362.709  14
 -14  -4   0 8131.85 428.228   8
 -14   4   0 7988.57 402.699  11
 -14  -4   0 8082.32 399.150  11
 -14  -4  -1 1539.76 170.165  14
 -14   4  -1 1412.01 122.184  15
 -14  -4  -1 1508.25 205.365   8
 -14   4  -1 1408.09 182.517  11
 -14  -4  -1 1447.53 186.912  11
 -14  -4  -2 55582.4 976.095  14
 -14   4  -2 54113.2 725.209  15
 -14  -4  -2 56454.8 1164.48   8
 -14   4  -2 57051.6 1089.97  11
 -14  -4  -2 57670.5 1085.30  11
 -14  -4  -3 1612.01 181.977  14
 -14   4  -3 1699.41 139.523  15
 -14  -4  -3 1455.03 207.396   8
 -14   4  -3 1634.10 198.754  11
 -14  -4  -3 1548.22 188.841  11
 -14  -4  -4 26932.1 673.593  14
 -14   4  -4 26175.4 505.381  15
 -14  -4  -4 26393.5 785.431   8
 -14   4  -4 27417.3 721.674  11
 -14  -4  -4 27642.9 717.921  11
 -14   4  -5 1363.74 162.126  11
 -14  -4  -5 1187.48 149.005  11
 -14   4  -5 1310.45 118.627  15
 -14  -4  -5 1273.33 156.255  14
 -14   4  -6 13524.0 412.500  11
 -14  -4  -6 13868.2 420.463  11
 -14   4  -6 13159.2 336.788  15
 -14  -4  -6 13639.4 443.123  14
 -14   4  -7 3899.70 172.142  15
 -14  -4  -7 4255.55 226.642  14
 -14  -5   8 134.105 38.8804   8
 -14  -5   7 6762.81 246.222   8
 -14  -5   6 5480.70 243.870   8
 -14  -5   6 5455.67 205.492  14
 -14  -5   5 48835.4 773.879   8
 -14  -5   5 48480.6 672.744  14
 -14  -5   5 47988.9 652.128  11
 -14  -5   4 1825.59 169.827   8
 -14  -5   4 2019.04 156.638  14
 -14   5   4 1685.00 138.970  11
 -14  -5   4 1658.18 137.531  11
 -14  -5   3 44109.1 817.975   8
 -14  -5   3 43220.3 725.061  14
 -14   5   3 44881.6 723.810  11
 -14  -5   2 5911.98 318.127   8
 -14  -5   2 5737.74 281.426  14
 -14   5   2 5655.52 273.935  11
 -14  -5   2 5679.97 273.922  11
 -14   5   1-44.6977 87.7928  11
 -14  -5   1 53.5511 71.6439  11
 -14  -5   1 29.1055 79.4417   8
 -14  -5   1 134.226 70.1619  14
 -14   5   0 884.522 121.301  11
 -14  -5   0 982.511 126.647  11
 -14  -5   0 946.562 133.239  14
 -14  -5   0 914.312 143.602   8
 -14   5   0 807.529 88.1182  15
 -14  -5  -1 31602.3 698.649  14
 -14   5  -1 31047.2 673.812  11
 -14  -5  -1 30797.6 669.937  11
 -14  -5  -1 31752.9 784.592   8
 -14   5  -1 29980.1 518.594  15
 -14  -5  -2 7039.01 339.960  14
 -14   5  -2 6755.74 316.510  11
 -14  -5  -2 6830.52 316.379  11
 -14  -5  -2 7141.06 381.526   8
 -14   5  -2 6943.68 257.868  15
 -14  -5  -3 54947.2 926.230  14
 -14   5  -3 53656.9 840.634  11
 -14  -5  -3 54324.7 845.232  11
 -14  -5  -3 55238.4 1028.94   8
 -14   5  -3 54055.8 711.345  15
 -14  -5  -4 1342.27 156.882  14
 -14   5  -4 1184.20 124.084  11
 -14  -5  -4 1460.13 136.675  11
 -14   5  -4 1567.96 129.673  15
 -14   5  -5 1842.23 132.857  15
 -14  -5  -5 2109.66 179.867  14
 -14   5  -6 4723.16 191.443  15
 -14  -5  -6 5012.76 247.286  14
 -14  -5  -7 39287.6 584.439  14
 -14  -6   6 3839.03 174.172   8
 -14  -6   6 3777.51 160.429  14
 -14  -6   5 2683.70 163.247   8
 -14  -6   5 2770.56 156.567  14
 -14  -6   4 47508.0 710.803   8
 -14  -6   4 47946.8 683.089  14
 -14  -6   3 1293.61 133.421   8
 -14  -6   3 1737.09 147.235  14
 -14  -6   2 20855.3 520.810   8
 -14  -6   2 21395.4 505.568  14
 -14  -6   1 107.504 64.3012   8
 -14   6   1 198.348 46.1012  15
 -14  -6   1 308.403 78.4228  14
 -14  -6   0 11573.7 408.880   8
 -14   6   0 11079.6 292.610  15
 -14  -6   0 11733.3 398.660  14
 -14  -6  -1 266.043 90.4997   8
 -14   6  -1 193.569 65.6243  15
 -14  -6  -1 183.129 76.7779  14
 -14  -6  -2 68511.8 976.918   8
 -14   6  -2 67130.1 749.457  15
 -14  -6  -2 67973.0 961.518  14
 -14   6  -3 94.8521 54.1050  15
 -14  -6  -3 94.4296 67.3397  14
 -14   6  -4 22308.4 419.328  15
 -14  -6  -4 22197.6 524.647  14
 -14   6  -5 4934.95 191.304  15
 -14  -6  -5 5470.62 247.387  14
 -14  -6  -6 14345.6 345.499  14
 -14  -7   5 16590.5 335.266  14
 -14  -7   4 175.981 58.2675  14
 -14  -7   3 49607.5 675.123  14
 -14  -7   2 8213.61 255.925   8
 -14  -7   2 8513.18 295.210  14
 -14  -7   1 358.793 62.6473   8
 -14   7   1 498.625 60.0088  15
 -14  -7   1 623.757 92.3129  14
 -14  -7   0 5290.80 212.936   8
 -14  -7   0 5633.99 254.338  14
 -14   7   0 5158.96 185.035  15
 -14  -7  -1 58714.9 807.184  14
  14  -7   1 59429.8 759.610  20
 -14  -7  -2 1762.78 146.532  14
 -14   7  -2 1777.11 118.262  15
 -14  -7  -3 30269.9 553.152  14
 -14   7  -3 28998.4 440.262  15
 -14  -7  -4 2870.48 162.813  14
 -14   7  -4 2745.75 133.314  15
 -14  -8   3 1310.28 100.039  14
 -14  -8   2 23085.2 415.064  14
  14  -8  -2 22209.6 419.669  20
 -14  -8   1 2347.90 140.868  14
  14  -8  -1 2377.26 142.000  20
 -14  -8   0 12829.0 321.545  14
 -14  -8  -1 1174.63 102.302  14
 -14  -8  -2 33424.5 487.142  14
 -15   0   7 41006.4 515.474   8
 -15   0   7 41810.0 581.588  11
 -15   0   6-72.4597 60.9202   8
 -15   0   6-82.5620 61.0479  11
 -15   0   5 18742.7 439.303   8
 -15   0   5 18871.8 467.465  11
 -15   0   4 37.8376 57.7811   8
 -15   0   4-92.3090 80.6717  11
 -15   0   3 12584.4 405.079   8
 -15   0   3 12030.2 416.940  11
 -15   0   2 215.192 93.6138   8
 -15   0   2 235.232 100.311  11
 -15   0   1 111707. 1287.53   8
 -15   0   1 113636. 1357.92  11
 -15   0   0 83.0908 96.0109   8
 -15   0   0 88.7807 93.4347  11
 -15   0  -1 5577.07 302.974   8
 -15   0  -1 5820.24 322.891  11
 -15   0  -2-175.326 107.559   8
 -15   0  -2-43.0094 84.7994  11
 -15   0  -3 18584.4 530.562   8
 -15   0  -3 17602.9 350.551  14
 -15   0  -3 19172.5 565.227  11
 -15   0  -4-3.42254 35.4818  14
 -15   0  -4-74.7989 88.0324  11
 -15   0  -5 32567.1 659.902  11
 -15   0  -6-62.3279 58.9468  11
 -15  -1   7-44.2466 47.7602   8
 -15   1   7-58.5739 50.0453  11
 -15  -1   7-20.9068 51.9611  11
 -15   1   6 26498.7 434.580   8
 -15  -1   6 26171.2 487.156   8
 -15   1   6 26774.2 509.264  11
 -15  -1   6 27170.3 512.734  11
 -15   1   5 1765.44 130.866   8
 -15  -1   5 1782.35 144.774   8
 -15   1   5 1630.97 142.659  11
 -15  -1   5 1811.64 149.178  11
 -15   1   4 1520.60 132.203   8
 -15  -1   4 1752.35 154.360   8
 -15   1   4 1635.91 152.802  11
 -15  -1   4 1664.47 154.809  11
 -15   1   3 4573.40 237.509   8
 -15  -1   3 4824.19 260.005   8
 -15   1   3 4952.18 268.126  11
 -15  -1   3 4833.02 265.831  11
 -15   1   2 79842.1 1008.73   8
 -15  -1   2 80857.0 1079.67   8
 -15   1   2 81072.7 1104.12  11
 -15  -1   2 80858.0 1100.72  11
 -15  -1   1 416.692 116.052   8
 -15   1   1 285.510 96.2334   8
 -15   1   1 414.607 118.058  11
 -15  -1   1 466.650 118.160  11
 -15   1   0 56338.5 893.006   8
 -15  -1   0 55852.9 943.187   8
 -15   1   0 58053.6 979.957  11
 -15  -1   0 56860.3 967.330  11
 -15   1  -1 251.542 97.9126  11
 -15  -1  -1 208.057 88.6198  11
 -15  -1  -1 224.700 57.1132  14
 -15   1  -1 56.0268 82.8547   8
 -15  -1  -1 188.665 88.6034   8
 -15   1  -2 463.807 103.465  11
 -15  -1  -2 486.950 106.121  11
 -15  -1  -2 649.384 83.1404  14
 -15  -1  -2 238.406 78.1604   8
 -15   1  -2 276.160 76.6976   8
 -15   1  -3 425.639 101.067  11
 -15  -1  -3 290.329 89.9524  11
 -15   1  -3 428.295 87.4538   8
 -15  -1  -3 414.052 96.6635   8
 -15  -1  -3 341.156 63.2572  14
 -15   1  -4 29417.5 659.393  11
 -15  -1  -4 29932.8 664.483  11
 -15  -1  -5 544.829 71.1398  14
 -15   1  -5 532.797 97.8323  11
 -15  -1  -5 547.353 101.375  11
 -15   1  -6 27998.3 523.338  11
 -15  -1  -6 28042.1 525.075  11
 -15  -2   7 40263.6 533.358   8
 -15   2   7 39045.4 509.625  11
 -15  -2   7 39692.7 517.560  11
 -15  -2   6 717.783 90.0965   8
 -15   2   6 800.271 94.2330  11
 -15  -2   6 833.353 93.3816  11
 -15  -2   5 19720.8 456.653   8
 -15   2   5 18964.9 441.553  11
 -15  -2   5 19455.8 449.192  11
 -15  -2   4 128.669 62.6051   8
 -15   2   4-31.4015 56.3998   8
 -15   2   4 68.1027 56.2112  11
 -15  -2   4 31.6709 60.6550  11
 -15   2   3 20434.3 442.196   8
 -15  -2   3 21003.7 527.247   8
 -15   2   3 20892.7 518.520  11
 -15  -2   3 20888.5 520.118  11
 -15   2   2 2259.00 162.675   8
 -15  -2   2 2518.48 201.536   8
 -15   2   2 2259.33 186.091  11
 -15  -2   2 2219.07 185.943  11
 -15   2   1 72179.2 904.331   8
 -15  -2   1 73882.7 1052.20   8
 -15   2   1 74209.3 1040.61  11
 -15  -2   1 73649.1 1040.25  11
 -15  -2   0 2064.60 142.534  14
 -15  -2   0 2397.73 203.815   8
 -15   2   0 2131.96 168.845   8
 -15   2   0 2418.11 201.172  11
 -15  -2   0 2479.83 203.978  11
 -15  -2  -1 7490.54 266.551  14
 -15  -2  -1 7613.34 351.532   8
 -15   2  -1 7700.76 307.032   8
 -15   2  -1 7775.58 348.761  11
 -15  -2  -1 7967.84 353.716  11
 -15   2  -2 120.791 70.2050  11
 -15  -2  -2 194.373 78.1793  11
 -15  -2  -2 158.193 53.4523  14
 -15  -2  -2 81.3681 78.0982   8
 -15   2  -2 71.5634 70.0417   8
 -15  -2  -3 22402.6 456.192  14
 -15  -2  -3 23575.3 596.887   8
 -15   2  -3 23815.7 588.862  11
 -15  -2  -3 23677.0 585.496  11
 -15  -2  -4 17.7937 44.5344  14
 -15   2  -4 53.3062 61.5012  11
 -15  -2  -4 5.65872 61.4697  11
 -15   2  -5 57475.9 784.560  11
 -15  -2  -5 58480.3 792.995  11
 -15  -3   7 980.496 85.5316   8
 -15   3   6 43185.7 537.450  11
 -15  -3   6 44866.7 553.694  11
 -15  -3   5 1528.65 131.240   8
 -15   3   5 1560.50 120.946  11
 -15  -3   5 1619.56 124.051  11
 -15  -3   4 845.102 108.530   8
 -15   3   4 961.680 104.941  11
 -15  -3   4 1007.31 107.376  11
 -15  -3   3 2274.86 125.238  14
 -15  -3   3 2853.22 192.995   8
 -15   3   3 2713.99 178.053  11
 -15  -3   3 2618.02 176.552  11
 -15  -3   2 37766.5 707.670   8
 -15   3   2 37987.9 673.194  11
 -15  -3   2 36696.6 661.003  11
 -15   3   1 289.164 85.3989  11
 -15  -3   1 305.870 82.1834  11
 -15  -3   1 210.976 58.4065  14
 -15  -3   1 230.713 85.1380   8
 -15  -3   0 43151.7 632.657  14
 -15  -3   0 45133.3 808.743   8
 -15   3   0 44392.6 758.623  11
 -15  -3   0 44407.4 757.357  11
 -15  -3  -1 3522.99 188.022  14
 -15  -3  -1 3739.21 239.361   8
 -15   3  -1 3752.17 226.699  11
 -15  -3  -1 3832.53 228.607  11
 -15   3  -2-5.10103 65.3643  11
 -15  -3  -2-61.6415 72.4987  11
 -15  -3  -2 61.1469 49.6596  14
 -15  -3  -2-8.32602 72.5412   8
 -15  -3  -3 69.8183 54.1441  14
 -15  -3  -3 231.586 86.2755   8
 -15   3  -3 255.773 73.4210  11
 -15  -3  -3 132.771 62.1693  11
 -15  -3  -4 43941.1 610.885  14
 -15   3  -4 45389.3 669.638  11
 -15  -3  -4 45862.8 676.455  11
 -15  -3  -5 463.587 71.4981  14
 -15  -4   6-0.16872 36.5522   8
 -15  -4   5 8946.67 273.821   8
 -15   4   4 1277.13 97.3826  11
 -15  -4   4 1313.35 100.089  11
 -15  -4   3 14401.4 309.282  14
 -15   4   3 14532.7 340.678  11
 -15  -4   3 14616.7 345.396  11
 -15   4   2 165.141 48.7761  11
 -15  -4   2 225.542 59.2124  11
 -15  -4   2 304.848 59.7778  14
 -15  -4   2 383.931 81.9216   8
 -15  -4   1 37463.9 563.182  14
 -15  -4   1 40471.5 700.559   8
 -15   4   1 39586.4 610.618  11
 -15  -4   1 38249.6 600.854  11
 -15  -4   0 2811.60 164.260  14
 -15  -4   0 2766.25 192.817   8
 -15   4   0 2583.10 162.338  11
 -15  -4   0 2541.62 160.384  11
 -15  -4  -1 10675.3 315.101  14
 -15  -4  -1 10999.8 372.817   8
 -15   4  -1 10874.2 321.162  11
 -15  -4  -1 10326.3 315.152  11
 -15  -4  -2 1960.23 138.573  14
 -15  -4  -2 2005.63 161.185   8
 -15   4  -2 1769.90 128.428  11
 -15  -4  -2 1807.28 128.975  11
 -15  -4  -3 13421.0 340.881  14
 -15  -4  -4 1454.94 114.235  14
 -15  -5   4 407.771 61.5738   8
 -15  -5   3 115.690 48.0624   8
 -15  -5   3 63.2735 34.7409  14
 -15  -5   2 35229.4 561.238   8
 -15  -5   2 34349.2 489.692  14
 -15  -5   1 42.0871 48.0505   8
 -15  -5   1-14.6745 45.1864  14
 -15  -5   0 27454.5 510.479   8
 -15  -5   0 27503.9 470.536  14
 -15  -5  -1 1219.76 112.103   8
 -15  -5  -1 1283.97 108.775  14
 -15  -5  -2 306.972 62.5984   8
 -15  -5  -2 304.148 58.0147  14
 -15  -5  -3 2131.71 128.345  14
 -15  -6   1 58921.9 605.060  14
 -15  -6   0 115.891 43.7458  14
 -15  -6  -1 9549.75 249.138  14
 -16   0   3-46.2491 49.6197  11
 -16   0   2 16337.8 354.056  11
 -16   0   1-51.9169 46.7300   8
 -16   0   1-38.2424 50.8441  11
 -16   0   0 30671.8 499.138  11
 -16   0   0 30184.0 453.390   8
 -16   0  -1 34.2147 42.8466  11
 -16   0  -2 28437.7 451.741  11
 -16   1   3 40096.0 511.457  11
 -16  -1   3 40940.5 519.852  11
 -16   1   2 828.889 84.3641  11
 -16  -1   2 932.444 89.8711  11
 -16  -1   2 919.986 86.5242   8
 -16   1   1 1659.18 116.643  11
 -16  -1   1 1680.66 117.997  11
 -16  -1   1 1667.41 114.761   8
 -16  -1   0 420.644 67.1086   8
 -16   1   0 364.761 65.3208  11
 -16  -1   0 302.122 60.1032  11
 -16  -1  -1 47773.3 598.691  11
 -16  -1  -1 49185.5 592.534   8
 -16  -2   2 5543.18 195.213   8
 -16  -2   1 2400.52 134.580   8
 -16  -2   0 22875.6 404.779   8
 -16  -2  -1 1953.55 121.194   8
   0   0   0    0.00    0.00   0

TITL NV2110_cu in P2(1)/n
REM P2(1)/n (#14 in standard setting)
CELL 1.54184  12.842187  13.438433  15.213971  90.0000  92.0950  90.0000
ZERR    4.00   0.000107   0.000098   0.000128   0.0000   0.0007   0.0000
LATT  1
SYMM -x+1/2, y+1/2,-z+1/2
SFAC C H B N O F P Cl Au
UNIT 96.00 120.00 4.00 4.00 4.00 16.00 4.00 8.00 4.00
REM  CrysAlisPro recorded range (K): Min=160.0; max=160.0; aver:160.0
TEMP -113
SIZE 0.04 0.30 0.31
TREF
HKLF 4
END
;
_shelx_hkl_checksum   67903

#   End of CIF   ============================================================
