# Required
# Created by GaussView 6.0.16
#

#
#

@<TRIPOS>MOLECULE
Molecule Name
7 6
SMALL
NO_CHARGES


@<TRIPOS>ATOM
1 C1    -6.6670    -1.4610     0.0000 C
2 H2    -6.3100    -2.4700     0.0000 H
3 H3    -6.3100    -0.9570    -0.8740 H
4 H4    -7.7370    -1.4610     0.0000 H
5 C5    -6.1530    -0.7350     1.2570 C
6 O6    -6.4550     0.4690     1.4610 O
7 Cl7    -5.1420    -1.5940     2.4140 Cl
@<TRIPOS>BOND
1 1 2 1
2 1 3 1
3 1 4 1
4 1 5 1
5 5 6 2
6 5 7 1
